nohup: ignoring input
sandTrap [(0.0001, 0.0005), (0, 0.075), (0.05, 0.2), (0.1, 2.0), (0.001, 0.1)]
Inlet concentration updated to 0.00038161433016544876
Inlet concentration updated to 0.00038161433016544876
Inlet concentration updated to 0.00038161433016544876
Inlet concentration updated to 0.00038161433016544876
Wall roughness updated to 0.022426367278870558
Wall roughness updated to 0.022426367278870558
Wall roughness updated to 0.022426367278870558
Max Cell Size updated to 0.14659136835689968
Turbulence Constant updated to 0.7086457643820031
Inlet Turbulent Viscosity updated to 0.04770399915640329
/*---------------------------------------------------------------------------*\
| =========                 |                                                 |
| \\      /  F ield         | OpenFOAM: The Open Source CFD Toolbox           |
|  \\    /   O peration     | Version:  2312                                  |
|   \\  /    A nd           | Website:  www.openfoam.com                      |
|    \\/     M anipulation  |                                                 |
\*---------------------------------------------------------------------------*/
Build  : _e651d635-20240208 OPENFOAM=2312 patch=240220 version=2312
Arch   : "LSB;label=32;scalar=64"
Exec   : cartesianMesh
Date   : Jan 20 2025
Time   : 17:56:39
Host   : work
PID    : 45306
--> FOAM Warning : 
    From Foam::fileName Foam::cwd_L()
    in file POSIX.C at line 552
    PWD is not the cwd() - reverting to physical description
I/O    : uncollated
--> FOAM Warning : 
    From Foam::fileName Foam::cwd_L()
    in file POSIX.C at line 552
    PWD is not the cwd() - reverting to physical description
Case   : /home/bm424/Projects/MOOptimisers/tempDirs/tmp72kizkyo
nProcs : 1
trapFpe: Floating point exception trapping enabled (FOAM_SIGFPE).
fileModificationChecking : Monitoring run-time modified files using timeStampMaster (fileModificationSkew 5, maxFileModificationPolls 20)
allowSystemOperations : Allowing user-supplied system call operations

// * * * * * * * * * * * * * * * * * * * * * * * * * * * * * * * * * * * * * //
Create time

Setting root cube size and refinement parameters
Root box (-7.0137 -18.2637 -17.9937) (30.5137 19.2637 19.5337)
Requested cell size corresponds to octree level 8
Requested boundary cell size corresponds to octree level 9
Refining boundary
Refining boundary boxes to the given size
Finished refining boundary boxes
Refining boxes intersecting surface meshes
Finished refinement of boxes intersecting surface meshes
Refining boxes intersecting edge meshes
Finished refinement of boxes intersecting edge meshes
Performing automatic refinement
Performing automatic refinement
Marking inside/outside.
Number of internal boxes is 5660
Number of outside boxes is 41458
Number of data boxes is 18536
Number of unknown boxes is 0
Refining boxes near DATA boxes
Marking inside/outside.
Number of internal boxes is 32246
Number of outside boxes is 41458
Number of data boxes is 18536
Number of unknown boxes is 0
Finished refining boxes near DATA boxes
Extracting polyMesh
Creating octree vertices
Octree nodes 63840
Resizing points!
Finished creating octree vertices
Creating polyMesh from octree
Reordering boundary faces 
Finished reordering boundary faces
Finished creating polyMesh
Mesh has :
45328 vertices 
109182 faces
32032 cells
Finished extracting polyMesh
Checking for irregular surface connections
Checking cells connected to surface vertices
Found 17334 boundary faces 
Found 0 problematic vertices
Finished checking cells connected to surface vertices
Checking for non - manifold surface edges
Found 0 non - manifold edges
Finished checking for non - manifold surface edges
Checking faces connections to surface vertices
Found 0 invalid connections
Finished checking faces connections to surface vertices
Finished checking for irregular surface connections
Found 17334 boundary faces 
Found 0 non - mappable cells
Checking cell connections
Finished checking cell connections
Found 17334 boundary faces 
Marked 0 faces for decomposition
Found 17334 boundary faces 
Smoothing mesh surface before mapping.
Found 0 corners at the surface of the volume mesh
Found 0 edge points at the surface of the volume mesh
Starting untangling the surface of the volume mesh
Number of inverted boundary faces is 0
Finished untangling the surface of the volume mesh
Found 0 corners at the surface of the volume mesh
Found 0 edge points at the surface of the volume mesh
Starting untangling the surface of the volume mesh
Number of inverted boundary faces is 0
Finished untangling the surface of the volume mesh
Found 0 corners at the surface of the volume mesh
Found 0 edge points at the surface of the volume mesh
Starting untangling the surface of the volume mesh
Number of inverted boundary faces is 0
Finished untangling the surface of the volume mesh
Finished smoothing mesh surface before mapping.
Mapping vertices onto surface
Finished mapping vertices onto surface
Found 0 corners at the surface of the volume mesh
Found 0 edge points at the surface of the volume mesh
Starting untangling the surface of the volume mesh
Number of inverted boundary faces is 0
Finished untangling the surface of the volume mesh
Found 17334 boundary faces 
Extracting edges
Starting topological adjustment of patches
No topological adjustment was needed
Starting geometrical adjustment of patches
Found 8 corners at the surface of the volume mesh
Found 1396 edge points at the surface of the volume mesh
12 edge groups found!
No geometrical adjustment was needed
Found 17334 boundary faces 
Found 8 corners at the surface of the volume mesh
Found 1396 edge points at the surface of the volume mesh
Performing patch correction
Found 8 corners at the surface of the volume mesh
Found 1396 edge points at the surface of the volume mesh
Finished with patch correction
Found 17378 boundary faces 
Removing selected cells from the mesh
New cells size 31990
Reordering boundary faces 
Finished reordering boundary faces
Removing faces
Finished removing faces
Finished removing selected cells from the mesh
Adding new cells 
Adding 296 cells to the mesh
Finished adding cells to the mesh
Reordering bnd faces
Reordering boundary faces 
Finished reordering boundary faces
Finding bnd faces
Found 17378 boundary faces 
Mapping vertices with respect to surface patches
Found 8 corners at the surface of the volume mesh
Found 1396 edge points at the surface of the volume mesh
12 edge groups found!
Finished mapping vertices with respect to surface patches
Found 17378 boundary faces 
Found 8 corners at the surface of the volume mesh
Found 1396 edge points at the surface of the volume mesh
Optimizing edges. Iteration:.....
Optimizing surface vertices. Iteration:.....
Starting untangling the surface of the volume mesh
Number of inverted boundary faces is 0
Finished untangling the surface of the volume mesh
Found 17378 boundary faces 
Found 8 corners at the surface of the volume mesh
Found 1396 edge points at the surface of the volume mesh
Found 8 corners at the surface of the volume mesh
Found 1396 edge points at the surface of the volume mesh
Starting creating layer cells
Adding 18794 cells to the mesh
Resizing cells!
Resizing faces!
Finished adding cells to the mesh
Reordering boundary faces 
Finished reordering boundary faces
Finished creating layer cells
Found 20218 boundary faces 
Found 8 corners at the surface of the volume mesh
Found 1420 edge points at the surface of the volume mesh
Optimizing edges. Iteration:.....
Optimizing surface vertices. Iteration:.....
Starting untangling the surface of the volume mesh
Number of inverted boundary faces is 0
Finished untangling the surface of the volume mesh
Found 20218 boundary faces 
Found 8 corners at the surface of the volume mesh
Found 1420 edge points at the surface of the volume mesh
Starting smoothing the mesh
Starting untangling the mesh
Iteration 0. Number of bad faces is 0
Finished untangling the mesh
Finished smoothing the mesh
Iteration 0. Number of bad faces is 0
Starting untangling the mesh
Iteration 0. Number of bad faces is 0
Finished untangling the mesh
Found 20218 boundary faces 
Found 8 corners at the surface of the volume mesh
Found 1420 edge points at the surface of the volume mesh
Iteration 0. Number of bad faces is 0
Starting untangling the mesh
Iteration 0. Number of bad faces is 0
Finished untangling the mesh
Renumbering the mesh
Finished renumbering the mesh
Renaming boundary patches
Finished renaming boundary patches
ExecutionTime = 56.49 s  ClockTime = 5 s

End

/*---------------------------------------------------------------------------*\
| =========                 |                                                 |
| \\      /  F ield         | OpenFOAM: The Open Source CFD Toolbox           |
|  \\    /   O peration     | Version:  2312                                  |
|   \\  /    A nd           | Website:  www.openfoam.com                      |
|    \\/     M anipulation  |                                                 |
\*---------------------------------------------------------------------------*/
Build  : _e651d635-20240208 OPENFOAM=2312 patch=240220 version=2312
Arch   : "LSB;label=32;scalar=64"
Exec   : renumberMesh
Date   : Jan 20 2025
Time   : 17:56:44
Host   : work
PID    : 46194
--> FOAM Warning : 
    From Foam::fileName Foam::cwd_L()
    in file POSIX.C at line 552
    PWD is not the cwd() - reverting to physical description
I/O    : uncollated
--> FOAM Warning : 
    From Foam::fileName Foam::cwd_L()
    in file POSIX.C at line 552
    PWD is not the cwd() - reverting to physical description
Case   : /home/bm424/Projects/MOOptimisers/tempDirs/tmp72kizkyo
nProcs : 1
trapFpe: Floating point exception trapping enabled (FOAM_SIGFPE).
fileModificationChecking : Monitoring run-time modified files using timeStampMaster (fileModificationSkew 5, maxFileModificationPolls 20)
allowSystemOperations : Allowing user-supplied system call operations

// * * * * * * * * * * * * * * * * * * * * * * * * * * * * * * * * * * * * * //
Create time

Create mesh for time = 0

Mesh region0 size: 51080
Before renumbering :
    band           : 50812
    profile        : 4.14869e+08

Using default renumberMethod.

Selecting renumberMethod CuthillMcKee

Reading volScalarField: Conc01 Conc02 Conc03 Conc045 S_explicit01 S_explicit02 S_explicit03 S_explicit045 S_implicit eddyvisc epsilonUsing dynamicCode for patch freeSurface on field epsilon at line 32 in "/home/bm424/Projects/MOOptimisers/tempDirs/tmp72kizkyo/0/epsilon/boundaryField/freeSurface"
 k kineticenergy nut p
Reading volVectorField: U Umod01 Umod02 Umod03 Umod045

After renumbering :
    band           : 443
    profile        : 1.77988e+07

Writing mesh to "0.05"
End

/*---------------------------------------------------------------------------*\
| =========                 |                                                 |
| \\      /  F ield         | OpenFOAM: The Open Source CFD Toolbox           |
|  \\    /   O peration     | Version:  2312                                  |
|   \\  /    A nd           | Website:  www.openfoam.com                      |
|    \\/     M anipulation  |                                                 |
\*---------------------------------------------------------------------------*/
Build  : _e651d635-20240208 OPENFOAM=2312 patch=240220 version=2312
Arch   : "LSB;label=32;scalar=64"
Exec   : decomposePar
Date   : Jan 20 2025
Time   : 17:56:45
Host   : work
PID    : 46195
--> FOAM Warning : 
    From Foam::fileName Foam::cwd_L()
    in file POSIX.C at line 552
    PWD is not the cwd() - reverting to physical description
I/O    : uncollated
--> FOAM Warning : 
    From Foam::fileName Foam::cwd_L()
    in file POSIX.C at line 552
    PWD is not the cwd() - reverting to physical description
Case   : /home/bm424/Projects/MOOptimisers/tempDirs/tmp72kizkyo
nProcs : 1
trapFpe: Floating point exception trapping enabled (FOAM_SIGFPE).
fileModificationChecking : Monitoring run-time modified files using timeStampMaster (fileModificationSkew 5, maxFileModificationPolls 20)
allowSystemOperations : Allowing user-supplied system call operations

// * * * * * * * * * * * * * * * * * * * * * * * * * * * * * * * * * * * * * //
Create time



Decomposing mesh

Create mesh

Calculating distribution of cells
Decomposition method scotch [10] (region region0)

Finished decomposition in 0.14 s

Calculating original mesh data

Distributing cells to processors

Distributing faces to processors

Distributing points to processors

Constructing processor meshes

Processor 0
    Number of cells = 5097
    Number of points = 6821
    Number of faces shared with processor 1 = 237
    Number of faces shared with processor 3 = 268
    Number of processor patches = 2
    Number of processor faces = 505
    Number of boundary faces = 1881

Processor 1
    Number of cells = 5159
    Number of points = 6806
    Number of faces shared with processor 0 = 237
    Number of processor patches = 1
    Number of processor faces = 237
    Number of boundary faces = 2071

Processor 2
    Number of cells = 5148
    Number of points = 6860
    Number of faces shared with processor 4 = 246
    Number of faces shared with processor 7 = 212
    Number of processor patches = 2
    Number of processor faces = 458
    Number of boundary faces = 1888

Processor 3
    Number of cells = 5130
    Number of points = 6861
    Number of faces shared with processor 0 = 268
    Number of faces shared with processor 4 = 226
    Number of processor patches = 2
    Number of processor faces = 494
    Number of boundary faces = 1880

Processor 4
    Number of cells = 5086
    Number of points = 6788
    Number of faces shared with processor 2 = 246
    Number of faces shared with processor 3 = 226
    Number of processor patches = 2
    Number of processor faces = 472
    Number of boundary faces = 1876

Processor 5
    Number of cells = 5093
    Number of points = 6813
    Number of faces shared with processor 6 = 127
    Number of faces shared with processor 8 = 239
    Number of processor patches = 2
    Number of processor faces = 366
    Number of boundary faces = 2193

Processor 6
    Number of cells = 5057
    Number of points = 6670
    Number of faces shared with processor 5 = 127
    Number of processor patches = 1
    Number of processor faces = 127
    Number of boundary faces = 2789

Processor 7
    Number of cells = 5096
    Number of points = 6774
    Number of faces shared with processor 2 = 212
    Number of faces shared with processor 9 = 212
    Number of processor patches = 2
    Number of processor faces = 424
    Number of boundary faces = 1872

Processor 8
    Number of cells = 5157
    Number of points = 6872
    Number of faces shared with processor 5 = 239
    Number of faces shared with processor 9 = 230
    Number of processor patches = 2
    Number of processor faces = 469
    Number of boundary faces = 1912

Processor 9
    Number of cells = 5057
    Number of points = 6735
    Number of faces shared with processor 7 = 212
    Number of faces shared with processor 8 = 230
    Number of processor patches = 2
    Number of processor faces = 442
    Number of boundary faces = 1856

Number of processor faces = 1997
Max number of cells = 5159 (0.998434% above average 5108)
Max number of processor patches = 2 (11.1111% above average 1.8)
Max number of faces between processors = 505 (26.4397% above average 399.4)

Time = 0
Using dynamicCode for patch freeSurface on field epsilon at line 32 in "/home/bm424/Projects/MOOptimisers/tempDirs/tmp72kizkyo/0/epsilon/boundaryField/freeSurface"

Processor 0: field transfer
Processor 1: field transfer
Processor 2: field transfer
Processor 3: field transfer
Processor 4: field transfer
Processor 5: field transfer
Processor 6: field transfer
Processor 7: field transfer
Processor 8: field transfer
Processor 9: field transfer

End

/*---------------------------------------------------------------------------*\
| =========                 |                                                 |
| \\      /  F ield         | OpenFOAM: The Open Source CFD Toolbox           |
|  \\    /   O peration     | Version:  2312                                  |
|   \\  /    A nd           | Website:  www.openfoam.com                      |
|    \\/     M anipulation  |                                                 |
\*---------------------------------------------------------------------------*/
Build  : _e651d635-20240208 OPENFOAM=2312 patch=240220 version=2312
Arch   : "LSB;label=32;scalar=64"
Exec   : reconstructPar
Date   : Jan 20 2025
Time   : 18:05:08
Host   : work
PID    : 46404
--> FOAM Warning : 
    From Foam::fileName Foam::cwd_L()
    in file POSIX.C at line 552
    PWD is not the cwd() - reverting to physical description
I/O    : uncollated
--> FOAM Warning : 
    From Foam::fileName Foam::cwd_L()
    in file POSIX.C at line 552
    PWD is not the cwd() - reverting to physical description
Case   : /home/bm424/Projects/MOOptimisers/tempDirs/tmp72kizkyo
nProcs : 1
trapFpe: Floating point exception trapping enabled (FOAM_SIGFPE).
fileModificationChecking : Monitoring run-time modified files using timeStampMaster (fileModificationSkew 5, maxFileModificationPolls 20)
allowSystemOperations : Allowing user-supplied system call operations

// * * * * * * * * * * * * * * * * * * * * * * * * * * * * * * * * * * * * * //
Create time



Reconstructing fields
region=region0

Time = 100

--> FOAM Warning : 
    From int main(int, char**)
    in file reconstructPar.C at line 369
    readUpdate for the reconstructed mesh:2
readUpdate for the processor meshes  :0
These should be equal or your addressing might be incorrect. Please check your time directories for any mesh directories.
Reconstructing FV fields

    Reconstructing volScalarFields

        Conc01
        Conc02
        Conc03
        Conc045
        eddyvisc
        epsilon
Using dynamicCode for patch freeSurface on field epsilon at line 5537 in "/home/bm424/Projects/MOOptimisers/tempDirs/tmp72kizkyo/processor0/100/epsilon/boundaryField/freeSurface"
Using dynamicCode for patch freeSurface on field epsilon at line 5553 in "/home/bm424/Projects/MOOptimisers/tempDirs/tmp72kizkyo/processor1/100/epsilon/boundaryField/freeSurface"
Using dynamicCode for patch freeSurface on field epsilon at line 5572 in "/home/bm424/Projects/MOOptimisers/tempDirs/tmp72kizkyo/processor2/100/epsilon/boundaryField/freeSurface"
Using dynamicCode for patch freeSurface on field epsilon at line 5512 in "/home/bm424/Projects/MOOptimisers/tempDirs/tmp72kizkyo/processor3/100/epsilon/boundaryField/freeSurface"
Using dynamicCode for patch freeSurface on field epsilon at line 5482 in "/home/bm424/Projects/MOOptimisers/tempDirs/tmp72kizkyo/processor4/100/epsilon/boundaryField/freeSurface"
Using dynamicCode for patch freeSurface on field epsilon at line 5545 in "/home/bm424/Projects/MOOptimisers/tempDirs/tmp72kizkyo/processor5/100/epsilon/boundaryField/freeSurface"
Using dynamicCode for patch freeSurface on field epsilon at line 5667 in "/home/bm424/Projects/MOOptimisers/tempDirs/tmp72kizkyo/processor6/100/epsilon/boundaryField/freeSurface"
Using dynamicCode for patch freeSurface on field epsilon at line 5506 in "/home/bm424/Projects/MOOptimisers/tempDirs/tmp72kizkyo/processor7/100/epsilon/boundaryField/freeSurface"
Using dynamicCode for patch freeSurface on field epsilon at line 5595 in "/home/bm424/Projects/MOOptimisers/tempDirs/tmp72kizkyo/processor8/100/epsilon/boundaryField/freeSurface"
Using dynamicCode for patch freeSurface on field epsilon at line 5457 in "/home/bm424/Projects/MOOptimisers/tempDirs/tmp72kizkyo/processor9/100/epsilon/boundaryField/freeSurface"
        k
        kineticenergy
        nut
        p

    Reconstructing volVectorFields

        U

    Reconstructing surfaceScalarFields

        phi

Reconstructing point fields

No point fields

No lagrangian fields

No FA fields

Time = 200

Reconstructing FV fields

    Reconstructing volScalarFields

        Conc01
        Conc02
        Conc03
        Conc045
        eddyvisc
        epsilon
        k
        kineticenergy
        nut
        p

    Reconstructing volVectorFields

        U

    Reconstructing surfaceScalarFields

        phi

Reconstructing point fields

No point fields

No lagrangian fields

No FA fields

Time = 300

Reconstructing FV fields

    Reconstructing volScalarFields

        Conc01
        Conc02
        Conc03
        Conc045
        eddyvisc
        epsilon
        k
        kineticenergy
        nut
        p

    Reconstructing volVectorFields

        U

    Reconstructing surfaceScalarFields

        phi

Reconstructing point fields

No point fields

No lagrangian fields

No FA fields


End

/*---------------------------------------------------------------------------*\
| =========                 |                                                 |
| \\      /  F ield         | OpenFOAM: The Open Source CFD Toolbox           |
|  \\    /   O peration     | Version:  2312                                  |
|   \\  /    A nd           | Website:  www.openfoam.com                      |
|    \\/     M anipulation  |                                                 |
\*---------------------------------------------------------------------------*/
Build  : _e651d635-20240208 OPENFOAM=2312 patch=240220 version=2312
Arch   : "LSB;label=32;scalar=64"
Exec   : postProcess -func sampleDict
Date   : Jan 20 2025
Time   : 18:05:10
Host   : work
PID    : 46407
--> FOAM Warning : 
    From Foam::fileName Foam::cwd_L()
    in file POSIX.C at line 552
    PWD is not the cwd() - reverting to physical description
I/O    : uncollated
--> FOAM Warning : 
    From Foam::fileName Foam::cwd_L()
    in file POSIX.C at line 552
    PWD is not the cwd() - reverting to physical description
Case   : /home/bm424/Projects/MOOptimisers/tempDirs/tmp72kizkyo
nProcs : 1
trapFpe: Floating point exception trapping enabled (FOAM_SIGFPE).
fileModificationChecking : Monitoring run-time modified files using timeStampMaster (fileModificationSkew 5, maxFileModificationPolls 20)
allowSystemOperations : Allowing user-supplied system call operations

// * * * * * * * * * * * * * * * * * * * * * * * * * * * * * * * * * * * * * //
Create time

Create mesh for time = 0

Sampled set:
    point_a -> raw
    point_b -> raw
    point_c -> raw

Time = 0

Reading fields:
    volScalarField: Conc01 Conc02 Conc03 Conc045

Executing functionObjects

Time = 0.05

Reading fields:
    volScalarField: Conc01 Conc02 Conc03 Conc045

Executing functionObjects

Time = 100

Reading fields:
    volScalarField: Conc01 Conc02 Conc03 Conc045

Executing functionObjects

Time = 200

Reading fields:
    volScalarField: Conc01 Conc02 Conc03 Conc045

Executing functionObjects

Time = 300

Reading fields:
    volScalarField: Conc01 Conc02 Conc03 Conc045

Executing functionObjects

End

88.31552499999995
122.04813125000001
219.14414375
Inlet concentration updated to 0.0002202152431247022
Inlet concentration updated to 0.0002202152431247022
Inlet concentration updated to 0.0002202152431247022
Inlet concentration updated to 0.0002202152431247022
Wall roughness updated to 0.06419824925698857
Wall roughness updated to 0.06419824925698857
Wall roughness updated to 0.06419824925698857
Max Cell Size updated to 0.16830362404399152
Turbulence Constant updated to 1.151921946783498
Inlet Turbulent Viscosity updated to 0.06068044316917544
/*---------------------------------------------------------------------------*\
| =========                 |                                                 |
| \\      /  F ield         | OpenFOAM: The Open Source CFD Toolbox           |
|  \\    /   O peration     | Version:  2312                                  |
|   \\  /    A nd           | Website:  www.openfoam.com                      |
|    \\/     M anipulation  |                                                 |
\*---------------------------------------------------------------------------*/
Build  : _e651d635-20240208 OPENFOAM=2312 patch=240220 version=2312
Arch   : "LSB;label=32;scalar=64"
Exec   : cartesianMesh
Date   : Jan 20 2025
Time   : 18:05:11
Host   : work
PID    : 46409
--> FOAM Warning : 
    From Foam::fileName Foam::cwd_L()
    in file POSIX.C at line 552
    PWD is not the cwd() - reverting to physical description
I/O    : uncollated
--> FOAM Warning : 
    From Foam::fileName Foam::cwd_L()
    in file POSIX.C at line 552
    PWD is not the cwd() - reverting to physical description
Case   : /home/bm424/Projects/MOOptimisers/tempDirs/tmpdxfda1ra
nProcs : 1
trapFpe: Floating point exception trapping enabled (FOAM_SIGFPE).
fileModificationChecking : Monitoring run-time modified files using timeStampMaster (fileModificationSkew 5, maxFileModificationPolls 20)
allowSystemOperations : Allowing user-supplied system call operations

// * * * * * * * * * * * * * * * * * * * * * * * * * * * * * * * * * * * * * //
Create time

Setting root cube size and refinement parameters
Root box (-9.79286 -21.0429 -20.7729) (33.2929 22.0429 22.3129)
Requested cell size corresponds to octree level 8
Requested boundary cell size corresponds to octree level 10
Refining boundary
Refining boundary boxes to the given size
Finished refining boundary boxes
Refining boxes intersecting surface meshes
Finished refinement of boxes intersecting surface meshes
Refining boxes intersecting edge meshes
Finished refinement of boxes intersecting edge meshes
Performing automatic refinement
Performing automatic refinement
Marking inside/outside.
Number of internal boxes is 48720
Number of outside boxes is 79682
Number of data boxes is 56700
Number of unknown boxes is 0
Refining boxes near DATA boxes
Marking inside/outside.
Number of internal boxes is 89418
Number of outside boxes is 79682
Number of data boxes is 56700
Number of unknown boxes is 0
Finished refining boxes near DATA boxes
Extracting polyMesh
Creating octree vertices
Octree nodes 193929
Resizing points!
Finished creating octree vertices
Creating polyMesh from octree
Reordering boundary faces 
Finished reordering boundary faces
Finished creating polyMesh
Mesh has :
137271 vertices 
314479 faces
88702 cells
Finished extracting polyMesh
Checking for irregular surface connections
Checking cells connected to surface vertices
Found 54944 boundary faces 
Found 0 problematic vertices
Finished checking cells connected to surface vertices
Checking for non - manifold surface edges
Found 0 non - manifold edges
Finished checking for non - manifold surface edges
Checking faces connections to surface vertices
Found 0 invalid connections
Finished checking faces connections to surface vertices
Finished checking for irregular surface connections
Found 54944 boundary faces 
Found 0 non - mappable cells
Checking cell connections
Finished checking cell connections
Found 54944 boundary faces 
Marked 0 faces for decomposition
Found 54944 boundary faces 
Smoothing mesh surface before mapping.
Found 0 corners at the surface of the volume mesh
Found 0 edge points at the surface of the volume mesh
Starting untangling the surface of the volume mesh
Number of inverted boundary faces is 0
Finished untangling the surface of the volume mesh
Found 0 corners at the surface of the volume mesh
Found 0 edge points at the surface of the volume mesh
Starting untangling the surface of the volume mesh
Number of inverted boundary faces is 0
Finished untangling the surface of the volume mesh
Found 0 corners at the surface of the volume mesh
Found 0 edge points at the surface of the volume mesh
Starting untangling the surface of the volume mesh
Number of inverted boundary faces is 0
Finished untangling the surface of the volume mesh
Finished smoothing mesh surface before mapping.
Mapping vertices onto surface
Finished mapping vertices onto surface
Found 0 corners at the surface of the volume mesh
Found 0 edge points at the surface of the volume mesh
Starting untangling the surface of the volume mesh
Number of inverted boundary faces is 0
Finished untangling the surface of the volume mesh
Found 54944 boundary faces 
Extracting edges
Starting topological adjustment of patches
No topological adjustment was needed
Starting geometrical adjustment of patches
Found 8 corners at the surface of the volume mesh
Found 2452 edge points at the surface of the volume mesh
12 edge groups found!
No geometrical adjustment was needed
Found 54944 boundary faces 
Found 8 corners at the surface of the volume mesh
Found 2452 edge points at the surface of the volume mesh
Performing patch correction
Found 8 corners at the surface of the volume mesh
Found 2452 edge points at the surface of the volume mesh
Finished with patch correction
Found 55024 boundary faces 
Removing selected cells from the mesh
New cells size 88626
Reordering boundary faces 
Finished reordering boundary faces
Removing faces
Finished removing faces
Finished removing selected cells from the mesh
Adding new cells 
Adding 536 cells to the mesh
Finished adding cells to the mesh
Reordering bnd faces
Reordering boundary faces 
Finished reordering boundary faces
Finding bnd faces
Found 55024 boundary faces 
Mapping vertices with respect to surface patches
Found 8 corners at the surface of the volume mesh
Found 2452 edge points at the surface of the volume mesh
12 edge groups found!
Finished mapping vertices with respect to surface patches
Found 55024 boundary faces 
Found 8 corners at the surface of the volume mesh
Found 2452 edge points at the surface of the volume mesh
Optimizing edges. Iteration:.....
Optimizing surface vertices. Iteration:.....
Starting untangling the surface of the volume mesh
Number of inverted boundary faces is 0
Finished untangling the surface of the volume mesh
Found 55024 boundary faces 
Found 8 corners at the surface of the volume mesh
Found 2452 edge points at the surface of the volume mesh
Found 8 corners at the surface of the volume mesh
Found 2452 edge points at the surface of the volume mesh
Starting creating layer cells
Adding 57496 cells to the mesh
Resizing cells!
Resizing faces!
Finished adding cells to the mesh
Reordering boundary faces 
Finished reordering boundary faces
Finished creating layer cells
Found 59976 boundary faces 
Found 8 corners at the surface of the volume mesh
Found 2476 edge points at the surface of the volume mesh
Optimizing edges. Iteration:.....
Optimizing surface vertices. Iteration:.....
Starting untangling the surface of the volume mesh
Number of inverted boundary faces is 0
Finished untangling the surface of the volume mesh
Found 59976 boundary faces 
Found 8 corners at the surface of the volume mesh
Found 2476 edge points at the surface of the volume mesh
Starting smoothing the mesh
Starting untangling the mesh
Iteration 0. Number of bad faces is 0
Finished untangling the mesh
Finished smoothing the mesh
Iteration 0. Number of bad faces is 0
Starting untangling the mesh
Iteration 0. Number of bad faces is 0
Finished untangling the mesh
Found 59976 boundary faces 
Found 8 corners at the surface of the volume mesh
Found 2476 edge points at the surface of the volume mesh
Iteration 0. Number of bad faces is 0
Starting untangling the mesh
Iteration 0. Number of bad faces is 0
Finished untangling the mesh
Renumbering the mesh
Finished renumbering the mesh
Renaming boundary patches
Finished renaming boundary patches
ExecutionTime = 74.87 s  ClockTime = 7 s

End

/*---------------------------------------------------------------------------*\
| =========                 |                                                 |
| \\      /  F ield         | OpenFOAM: The Open Source CFD Toolbox           |
|  \\    /   O peration     | Version:  2312                                  |
|   \\  /    A nd           | Website:  www.openfoam.com                      |
|    \\/     M anipulation  |                                                 |
\*---------------------------------------------------------------------------*/
Build  : _e651d635-20240208 OPENFOAM=2312 patch=240220 version=2312
Arch   : "LSB;label=32;scalar=64"
Exec   : renumberMesh
Date   : Jan 20 2025
Time   : 18:05:18
Host   : work
PID    : 47294
--> FOAM Warning : 
    From Foam::fileName Foam::cwd_L()
    in file POSIX.C at line 552
    PWD is not the cwd() - reverting to physical description
I/O    : uncollated
--> FOAM Warning : 
    From Foam::fileName Foam::cwd_L()
    in file POSIX.C at line 552
    PWD is not the cwd() - reverting to physical description
Case   : /home/bm424/Projects/MOOptimisers/tempDirs/tmpdxfda1ra
nProcs : 1
trapFpe: Floating point exception trapping enabled (FOAM_SIGFPE).
fileModificationChecking : Monitoring run-time modified files using timeStampMaster (fileModificationSkew 5, maxFileModificationPolls 20)
allowSystemOperations : Allowing user-supplied system call operations

// * * * * * * * * * * * * * * * * * * * * * * * * * * * * * * * * * * * * * //
Create time

Create mesh for time = 0

Mesh region0 size: 146658
Before renumbering :
    band           : 146339
    profile        : 3.40844e+09

Using default renumberMethod.

Selecting renumberMethod CuthillMcKee

Reading volScalarField: Conc01 Conc02 Conc03 Conc045 S_explicit01 S_explicit02 S_explicit03 S_explicit045 S_implicit eddyvisc epsilonUsing dynamicCode for patch freeSurface on field epsilon at line 32 in "/home/bm424/Projects/MOOptimisers/tempDirs/tmpdxfda1ra/0/epsilon/boundaryField/freeSurface"
 k kineticenergy nut p
Reading volVectorField: U Umod01 Umod02 Umod03 Umod045

After renumbering :
    band           : 1379
    profile        : 1.61618e+08

Writing mesh to "0.05"
End

/*---------------------------------------------------------------------------*\
| =========                 |                                                 |
| \\      /  F ield         | OpenFOAM: The Open Source CFD Toolbox           |
|  \\    /   O peration     | Version:  2312                                  |
|   \\  /    A nd           | Website:  www.openfoam.com                      |
|    \\/     M anipulation  |                                                 |
\*---------------------------------------------------------------------------*/
Build  : _e651d635-20240208 OPENFOAM=2312 patch=240220 version=2312
Arch   : "LSB;label=32;scalar=64"
Exec   : decomposePar
Date   : Jan 20 2025
Time   : 18:05:20
Host   : work
PID    : 47296
--> FOAM Warning : 
    From Foam::fileName Foam::cwd_L()
    in file POSIX.C at line 552
    PWD is not the cwd() - reverting to physical description
I/O    : uncollated
--> FOAM Warning : 
    From Foam::fileName Foam::cwd_L()
    in file POSIX.C at line 552
    PWD is not the cwd() - reverting to physical description
Case   : /home/bm424/Projects/MOOptimisers/tempDirs/tmpdxfda1ra
nProcs : 1
trapFpe: Floating point exception trapping enabled (FOAM_SIGFPE).
fileModificationChecking : Monitoring run-time modified files using timeStampMaster (fileModificationSkew 5, maxFileModificationPolls 20)
allowSystemOperations : Allowing user-supplied system call operations

// * * * * * * * * * * * * * * * * * * * * * * * * * * * * * * * * * * * * * //
Create time



Decomposing mesh

Create mesh

Calculating distribution of cells
Decomposition method scotch [10] (region region0)

Finished decomposition in 0.29 s

Calculating original mesh data

Distributing cells to processors

Distributing faces to processors

Distributing points to processors

Constructing processor meshes

Processor 0
    Number of cells = 14805
    Number of points = 20556
    Number of faces shared with processor 1 = 410
    Number of faces shared with processor 2 = 441
    Number of processor patches = 2
    Number of processor faces = 851
    Number of boundary faces = 5945

Processor 1
    Number of cells = 14807
    Number of points = 20544
    Number of faces shared with processor 0 = 410
    Number of faces shared with processor 6 = 474
    Number of processor patches = 2
    Number of processor faces = 884
    Number of boundary faces = 5902

Processor 2
    Number of cells = 14729
    Number of points = 20426
    Number of faces shared with processor 0 = 441
    Number of faces shared with processor 4 = 429
    Number of processor patches = 2
    Number of processor faces = 870
    Number of boundary faces = 5880

Processor 3
    Number of cells = 14535
    Number of points = 20136
    Number of faces shared with processor 4 = 484
    Number of processor patches = 1
    Number of processor faces = 484
    Number of boundary faces = 6216

Processor 4
    Number of cells = 14522
    Number of points = 20189
    Number of faces shared with processor 2 = 429
    Number of faces shared with processor 3 = 484
    Number of processor patches = 2
    Number of processor faces = 913
    Number of boundary faces = 5807

Processor 5
    Number of cells = 14793
    Number of points = 20562
    Number of faces shared with processor 6 = 485
    Number of faces shared with processor 9 = 448
    Number of processor patches = 2
    Number of processor faces = 933
    Number of boundary faces = 5915

Processor 6
    Number of cells = 14750
    Number of points = 20536
    Number of faces shared with processor 1 = 474
    Number of faces shared with processor 5 = 485
    Number of processor patches = 2
    Number of processor faces = 959
    Number of boundary faces = 5913

Processor 7
    Number of cells = 14543
    Number of points = 19484
    Number of faces shared with processor 8 = 242
    Number of processor patches = 1
    Number of processor faces = 242
    Number of boundary faces = 6877

Processor 8
    Number of cells = 14519
    Number of points = 19415
    Number of faces shared with processor 7 = 242
    Number of faces shared with processor 9 = 436
    Number of processor patches = 2
    Number of processor faces = 678
    Number of boundary faces = 5690

Processor 9
    Number of cells = 14655
    Number of points = 20227
    Number of faces shared with processor 5 = 448
    Number of faces shared with processor 8 = 436
    Number of processor patches = 2
    Number of processor faces = 884
    Number of boundary faces = 5831

Number of processor faces = 3849
Max number of cells = 14807 (0.962784% above average 14665.8)
Max number of processor patches = 2 (11.1111% above average 1.8)
Max number of faces between processors = 959 (24.5778% above average 769.8)

Time = 0
Using dynamicCode for patch freeSurface on field epsilon at line 32 in "/home/bm424/Projects/MOOptimisers/tempDirs/tmpdxfda1ra/0/epsilon/boundaryField/freeSurface"

Processor 0: field transfer
Processor 1: field transfer
Processor 2: field transfer
Processor 3: field transfer
Processor 4: field transfer
Processor 5: field transfer
Processor 6: field transfer
Processor 7: field transfer
Processor 8: field transfer
Processor 9: field transfer

End

/*---------------------------------------------------------------------------*\
| =========                 |                                                 |
| \\      /  F ield         | OpenFOAM: The Open Source CFD Toolbox           |
|  \\    /   O peration     | Version:  2312                                  |
|   \\  /    A nd           | Website:  www.openfoam.com                      |
|    \\/     M anipulation  |                                                 |
\*---------------------------------------------------------------------------*/
Build  : _e651d635-20240208 OPENFOAM=2312 patch=240220 version=2312
Arch   : "LSB;label=32;scalar=64"
Exec   : reconstructPar
Date   : Jan 20 2025
Time   : 18:35:46
Host   : work
PID    : 47895
--> FOAM Warning : 
    From Foam::fileName Foam::cwd_L()
    in file POSIX.C at line 552
    PWD is not the cwd() - reverting to physical description
I/O    : uncollated
--> FOAM Warning : 
    From Foam::fileName Foam::cwd_L()
    in file POSIX.C at line 552
    PWD is not the cwd() - reverting to physical description
Case   : /home/bm424/Projects/MOOptimisers/tempDirs/tmpdxfda1ra
nProcs : 1
trapFpe: Floating point exception trapping enabled (FOAM_SIGFPE).
fileModificationChecking : Monitoring run-time modified files using timeStampMaster (fileModificationSkew 5, maxFileModificationPolls 20)
allowSystemOperations : Allowing user-supplied system call operations

// * * * * * * * * * * * * * * * * * * * * * * * * * * * * * * * * * * * * * //
Create time



Reconstructing fields
region=region0

Time = 100

--> FOAM Warning : 
    From int main(int, char**)
    in file reconstructPar.C at line 369
    readUpdate for the reconstructed mesh:2
readUpdate for the processor meshes  :0
These should be equal or your addressing might be incorrect. Please check your time directories for any mesh directories.
Reconstructing FV fields

    Reconstructing volScalarFields

        Conc01
        Conc02
        Conc03
        Conc045
        eddyvisc
        epsilon
Using dynamicCode for patch freeSurface on field epsilon at line 15943 in "/home/bm424/Projects/MOOptimisers/tempDirs/tmpdxfda1ra/processor0/100/epsilon/boundaryField/freeSurface"
Using dynamicCode for patch freeSurface on field epsilon at line 16111 in "/home/bm424/Projects/MOOptimisers/tempDirs/tmpdxfda1ra/processor1/100/epsilon/boundaryField/freeSurface"
Using dynamicCode for patch freeSurface on field epsilon at line 16055 in "/home/bm424/Projects/MOOptimisers/tempDirs/tmpdxfda1ra/processor2/100/epsilon/boundaryField/freeSurface"
Using dynamicCode for patch freeSurface on field epsilon at line 15533 in "/home/bm424/Projects/MOOptimisers/tempDirs/tmpdxfda1ra/processor3/100/epsilon/boundaryField/freeSurface"
Using dynamicCode for patch freeSurface on field epsilon at line 15680 in "/home/bm424/Projects/MOOptimisers/tempDirs/tmpdxfda1ra/processor4/100/epsilon/boundaryField/freeSurface"
Using dynamicCode for patch freeSurface on field epsilon at line 16227 in "/home/bm424/Projects/MOOptimisers/tempDirs/tmpdxfda1ra/processor5/100/epsilon/boundaryField/freeSurface"
Using dynamicCode for patch freeSurface on field epsilon at line 15642 in "/home/bm424/Projects/MOOptimisers/tempDirs/tmpdxfda1ra/processor6/100/epsilon/boundaryField/freeSurface"
Using dynamicCode for patch freeSurface on field epsilon at line 15911 in "/home/bm424/Projects/MOOptimisers/tempDirs/tmpdxfda1ra/processor7/100/epsilon/boundaryField/freeSurface"
Using dynamicCode for patch freeSurface on field epsilon at line 15606 in "/home/bm424/Projects/MOOptimisers/tempDirs/tmpdxfda1ra/processor8/100/epsilon/boundaryField/freeSurface"
Using dynamicCode for patch freeSurface on field epsilon at line 15764 in "/home/bm424/Projects/MOOptimisers/tempDirs/tmpdxfda1ra/processor9/100/epsilon/boundaryField/freeSurface"
        k
        kineticenergy
        nut
        p

    Reconstructing volVectorFields

        U

    Reconstructing surfaceScalarFields

        phi

Reconstructing point fields

No point fields

No lagrangian fields

No FA fields

Time = 200

Reconstructing FV fields

    Reconstructing volScalarFields

        Conc01
        Conc02
        Conc03
        Conc045
        eddyvisc
        epsilon
        k
        kineticenergy
        nut
        p

    Reconstructing volVectorFields

        U

    Reconstructing surfaceScalarFields

        phi

Reconstructing point fields

No point fields

No lagrangian fields

No FA fields

Time = 300

Reconstructing FV fields

    Reconstructing volScalarFields

        Conc01
        Conc02
        Conc03
        Conc045
        eddyvisc
        epsilon
        k
        kineticenergy
        nut
        p

    Reconstructing volVectorFields

        U

    Reconstructing surfaceScalarFields

        phi

Reconstructing point fields

No point fields

No lagrangian fields

No FA fields


End

/*---------------------------------------------------------------------------*\
| =========                 |                                                 |
| \\      /  F ield         | OpenFOAM: The Open Source CFD Toolbox           |
|  \\    /   O peration     | Version:  2312                                  |
|   \\  /    A nd           | Website:  www.openfoam.com                      |
|    \\/     M anipulation  |                                                 |
\*---------------------------------------------------------------------------*/
Build  : _e651d635-20240208 OPENFOAM=2312 patch=240220 version=2312
Arch   : "LSB;label=32;scalar=64"
Exec   : postProcess -func sampleDict
Date   : Jan 20 2025
Time   : 18:35:51
Host   : work
PID    : 47897
--> FOAM Warning : 
    From Foam::fileName Foam::cwd_L()
    in file POSIX.C at line 552
    PWD is not the cwd() - reverting to physical description
I/O    : uncollated
--> FOAM Warning : 
    From Foam::fileName Foam::cwd_L()
    in file POSIX.C at line 552
    PWD is not the cwd() - reverting to physical description
Case   : /home/bm424/Projects/MOOptimisers/tempDirs/tmpdxfda1ra
nProcs : 1
trapFpe: Floating point exception trapping enabled (FOAM_SIGFPE).
fileModificationChecking : Monitoring run-time modified files using timeStampMaster (fileModificationSkew 5, maxFileModificationPolls 20)
allowSystemOperations : Allowing user-supplied system call operations

// * * * * * * * * * * * * * * * * * * * * * * * * * * * * * * * * * * * * * //
Create time

Create mesh for time = 0

Sampled set:
    point_a -> raw
    point_b -> raw
    point_c -> raw

Time = 0

Reading fields:
    volScalarField: Conc01 Conc02 Conc03 Conc045

Executing functionObjects

Time = 0.05

Reading fields:
    volScalarField: Conc01 Conc02 Conc03 Conc045

Executing functionObjects

Time = 100

Reading fields:
    volScalarField: Conc01 Conc02 Conc03 Conc045

Executing functionObjects

Time = 200

Reading fields:
    volScalarField: Conc01 Conc02 Conc03 Conc045

Executing functionObjects

Time = 300

Reading fields:
    volScalarField: Conc01 Conc02 Conc03 Conc045

Executing functionObjects

End

53.27394375000001
26.58640624999999
57.856438125000004
Inlet concentration updated to 0.0004258473667763673
Inlet concentration updated to 0.0004258473667763673
Inlet concentration updated to 0.0004258473667763673
Inlet concentration updated to 0.0004258473667763673
Wall roughness updated to 0.04404488583987344
Wall roughness updated to 0.04404488583987344
Wall roughness updated to 0.04404488583987344
Max Cell Size updated to 0.1883073824774983
Turbulence Constant updated to 1.5395187795655807
Inlet Turbulent Viscosity updated to 0.08719013867469935
/*---------------------------------------------------------------------------*\
| =========                 |                                                 |
| \\      /  F ield         | OpenFOAM: The Open Source CFD Toolbox           |
|  \\    /   O peration     | Version:  2312                                  |
|   \\  /    A nd           | Website:  www.openfoam.com                      |
|    \\/     M anipulation  |                                                 |
\*---------------------------------------------------------------------------*/
Build  : _e651d635-20240208 OPENFOAM=2312 patch=240220 version=2312
Arch   : "LSB;label=32;scalar=64"
Exec   : cartesianMesh
Date   : Jan 20 2025
Time   : 18:35:53
Host   : work
PID    : 47898
--> FOAM Warning : 
    From Foam::fileName Foam::cwd_L()
    in file POSIX.C at line 552
    PWD is not the cwd() - reverting to physical description
I/O    : uncollated
--> FOAM Warning : 
    From Foam::fileName Foam::cwd_L()
    in file POSIX.C at line 552
    PWD is not the cwd() - reverting to physical description
Case   : /home/bm424/Projects/MOOptimisers/tempDirs/tmp12w19suf
nProcs : 1
trapFpe: Floating point exception trapping enabled (FOAM_SIGFPE).
fileModificationChecking : Monitoring run-time modified files using timeStampMaster (fileModificationSkew 5, maxFileModificationPolls 20)
allowSystemOperations : Allowing user-supplied system call operations

// * * * * * * * * * * * * * * * * * * * * * * * * * * * * * * * * * * * * * //
Create time

Setting root cube size and refinement parameters
Root box (-12.3533 -23.6033 -23.3333) (35.8533 24.6033 24.8733)
Requested cell size corresponds to octree level 8
Requested boundary cell size corresponds to octree level 10
Refining boundary
Refining boundary boxes to the given size
Finished refining boundary boxes
Refining boxes intersecting surface meshes
Finished refinement of boxes intersecting surface meshes
Refining boxes intersecting edge meshes
Finished refinement of boxes intersecting edge meshes
Performing automatic refinement
Performing automatic refinement
Marking inside/outside.
Number of internal boxes is 21346
Number of outside boxes is 79042
Number of data boxes is 45668
Number of unknown boxes is 0
Refining boxes near DATA boxes
Marking inside/outside.
Number of internal boxes is 88868
Number of outside boxes is 79042
Number of data boxes is 45668
Number of unknown boxes is 0
Finished refining boxes near DATA boxes
Extracting polyMesh
Creating octree vertices
Octree nodes 171866
Resizing points!
Finished creating octree vertices
Creating polyMesh from octree
Reordering boundary faces 
Finished reordering boundary faces
Finished creating polyMesh
Mesh has :
126235 vertices 
302650 faces
88298 cells
Finished extracting polyMesh
Checking for irregular surface connections
Checking cells connected to surface vertices
Found 44030 boundary faces 
Found 0 problematic vertices
Finished checking cells connected to surface vertices
Checking for non - manifold surface edges
Found 0 non - manifold edges
Finished checking for non - manifold surface edges
Checking faces connections to surface vertices
Found 0 invalid connections
Finished checking faces connections to surface vertices
Finished checking for irregular surface connections
Found 44030 boundary faces 
Found 0 non - mappable cells
Checking cell connections
Finished checking cell connections
Found 44030 boundary faces 
Marked 0 faces for decomposition
Found 44030 boundary faces 
Smoothing mesh surface before mapping.
Found 0 corners at the surface of the volume mesh
Found 0 edge points at the surface of the volume mesh
Starting untangling the surface of the volume mesh
Number of inverted boundary faces is 0
Finished untangling the surface of the volume mesh
Found 0 corners at the surface of the volume mesh
Found 0 edge points at the surface of the volume mesh
Starting untangling the surface of the volume mesh
Number of inverted boundary faces is 0
Finished untangling the surface of the volume mesh
Found 0 corners at the surface of the volume mesh
Found 0 edge points at the surface of the volume mesh
Starting untangling the surface of the volume mesh
Number of inverted boundary faces is 0
Finished untangling the surface of the volume mesh
Finished smoothing mesh surface before mapping.
Mapping vertices onto surface
Finished mapping vertices onto surface
Found 0 corners at the surface of the volume mesh
Found 0 edge points at the surface of the volume mesh
Starting untangling the surface of the volume mesh
Number of inverted boundary faces is 0
Finished untangling the surface of the volume mesh
Found 44030 boundary faces 
Extracting edges
Starting topological adjustment of patches
No topological adjustment was needed
Starting geometrical adjustment of patches
Found 8 corners at the surface of the volume mesh
Found 2188 edge points at the surface of the volume mesh
12 edge groups found!
No geometrical adjustment was needed
Found 44030 boundary faces 
Found 8 corners at the surface of the volume mesh
Found 2188 edge points at the surface of the volume mesh
Performing patch correction
Found 8 corners at the surface of the volume mesh
Found 2188 edge points at the surface of the volume mesh
Finished with patch correction
Found 44100 boundary faces 
Removing selected cells from the mesh
New cells size 88232
Reordering boundary faces 
Finished reordering boundary faces
Removing faces
Finished removing faces
Finished removing selected cells from the mesh
Adding new cells 
Adding 466 cells to the mesh
Finished adding cells to the mesh
Reordering bnd faces
Reordering boundary faces 
Finished reordering boundary faces
Finding bnd faces
Found 44100 boundary faces 
Mapping vertices with respect to surface patches
Found 8 corners at the surface of the volume mesh
Found 2188 edge points at the surface of the volume mesh
12 edge groups found!
Finished mapping vertices with respect to surface patches
Found 44100 boundary faces 
Found 8 corners at the surface of the volume mesh
Found 2188 edge points at the surface of the volume mesh
Optimizing edges. Iteration:.....
Optimizing surface vertices. Iteration:.....
Starting untangling the surface of the volume mesh
Number of inverted boundary faces is 0
Finished untangling the surface of the volume mesh
Found 44100 boundary faces 
Found 8 corners at the surface of the volume mesh
Found 2188 edge points at the surface of the volume mesh
Found 8 corners at the surface of the volume mesh
Found 2188 edge points at the surface of the volume mesh
Starting creating layer cells
Adding 46308 cells to the mesh
Resizing cells!
Finished adding cells to the mesh
Reordering boundary faces 
Finished reordering boundary faces
Finished creating layer cells
Found 48524 boundary faces 
Found 8 corners at the surface of the volume mesh
Found 2212 edge points at the surface of the volume mesh
Optimizing edges. Iteration:.....
Optimizing surface vertices. Iteration:.....
Starting untangling the surface of the volume mesh
Number of inverted boundary faces is 0
Finished untangling the surface of the volume mesh
Found 48524 boundary faces 
Found 8 corners at the surface of the volume mesh
Found 2212 edge points at the surface of the volume mesh
Starting smoothing the mesh
Starting untangling the mesh
Iteration 0. Number of bad faces is 0
Finished untangling the mesh
Finished smoothing the mesh
Iteration 0. Number of bad faces is 0
Starting untangling the mesh
Iteration 0. Number of bad faces is 0
Finished untangling the mesh
Found 48524 boundary faces 
Found 8 corners at the surface of the volume mesh
Found 2212 edge points at the surface of the volume mesh
Iteration 0. Number of bad faces is 0
Starting untangling the mesh
Iteration 0. Number of bad faces is 0
Finished untangling the mesh
Renumbering the mesh
Finished renumbering the mesh
Renaming boundary patches
Finished renaming boundary patches
ExecutionTime = 65.6 s  ClockTime = 7 s

End

/*---------------------------------------------------------------------------*\
| =========                 |                                                 |
| \\      /  F ield         | OpenFOAM: The Open Source CFD Toolbox           |
|  \\    /   O peration     | Version:  2312                                  |
|   \\  /    A nd           | Website:  www.openfoam.com                      |
|    \\/     M anipulation  |                                                 |
\*---------------------------------------------------------------------------*/
Build  : _e651d635-20240208 OPENFOAM=2312 patch=240220 version=2312
Arch   : "LSB;label=32;scalar=64"
Exec   : renumberMesh
Date   : Jan 20 2025
Time   : 18:36:00
Host   : work
PID    : 48775
--> FOAM Warning : 
    From Foam::fileName Foam::cwd_L()
    in file POSIX.C at line 552
    PWD is not the cwd() - reverting to physical description
I/O    : uncollated
--> FOAM Warning : 
    From Foam::fileName Foam::cwd_L()
    in file POSIX.C at line 552
    PWD is not the cwd() - reverting to physical description
Case   : /home/bm424/Projects/MOOptimisers/tempDirs/tmp12w19suf
nProcs : 1
trapFpe: Floating point exception trapping enabled (FOAM_SIGFPE).
fileModificationChecking : Monitoring run-time modified files using timeStampMaster (fileModificationSkew 5, maxFileModificationPolls 20)
allowSystemOperations : Allowing user-supplied system call operations

// * * * * * * * * * * * * * * * * * * * * * * * * * * * * * * * * * * * * * //
Create time

Create mesh for time = 0

Mesh region0 size: 135006
Before renumbering :
    band           : 134842
    profile        : 2.63931e+09

Using default renumberMethod.

Selecting renumberMethod CuthillMcKee

Reading volScalarField: Conc01 Conc02 Conc03 Conc045 S_explicit01 S_explicit02 S_explicit03 S_explicit045 S_implicit eddyvisc epsilonUsing dynamicCode for patch freeSurface on field epsilon at line 32 in "/home/bm424/Projects/MOOptimisers/tempDirs/tmp12w19suf/0/epsilon/boundaryField/freeSurface"
 k kineticenergy nut p
Reading volVectorField: U Umod01 Umod02 Umod03 Umod045

After renumbering :
    band           : 1545
    profile        : 1.57993e+08

Writing mesh to "0.05"
End

/*---------------------------------------------------------------------------*\
| =========                 |                                                 |
| \\      /  F ield         | OpenFOAM: The Open Source CFD Toolbox           |
|  \\    /   O peration     | Version:  2312                                  |
|   \\  /    A nd           | Website:  www.openfoam.com                      |
|    \\/     M anipulation  |                                                 |
\*---------------------------------------------------------------------------*/
Build  : _e651d635-20240208 OPENFOAM=2312 patch=240220 version=2312
Arch   : "LSB;label=32;scalar=64"
Exec   : decomposePar
Date   : Jan 20 2025
Time   : 18:36:01
Host   : work
PID    : 48776
--> FOAM Warning : 
    From Foam::fileName Foam::cwd_L()
    in file POSIX.C at line 552
    PWD is not the cwd() - reverting to physical description
I/O    : uncollated
--> FOAM Warning : 
    From Foam::fileName Foam::cwd_L()
    in file POSIX.C at line 552
    PWD is not the cwd() - reverting to physical description
Case   : /home/bm424/Projects/MOOptimisers/tempDirs/tmp12w19suf
nProcs : 1
trapFpe: Floating point exception trapping enabled (FOAM_SIGFPE).
fileModificationChecking : Monitoring run-time modified files using timeStampMaster (fileModificationSkew 5, maxFileModificationPolls 20)
allowSystemOperations : Allowing user-supplied system call operations

// * * * * * * * * * * * * * * * * * * * * * * * * * * * * * * * * * * * * * //
Create time



Decomposing mesh

Create mesh

Calculating distribution of cells
Decomposition method scotch [10] (region region0)

Finished decomposition in 0.28 s

Calculating original mesh data

Distributing cells to processors

Distributing faces to processors

Distributing points to processors

Constructing processor meshes

Processor 0
    Number of cells = 13365
    Number of points = 17978
    Number of faces shared with processor 1 = 228
    Number of faces shared with processor 4 = 446
    Number of processor patches = 2
    Number of processor faces = 674
    Number of boundary faces = 5319

Processor 1
    Number of cells = 13435
    Number of points = 18155
    Number of faces shared with processor 0 = 228
    Number of processor patches = 1
    Number of processor faces = 228
    Number of boundary faces = 6541

Processor 2
    Number of cells = 13635
    Number of points = 18027
    Number of faces shared with processor 3 = 425
    Number of faces shared with processor 6 = 419
    Number of processor patches = 2
    Number of processor faces = 844
    Number of boundary faces = 4558

Processor 3
    Number of cells = 13373
    Number of points = 17731
    Number of faces shared with processor 2 = 425
    Number of faces shared with processor 4 = 494
    Number of processor patches = 2
    Number of processor faces = 919
    Number of boundary faces = 4470

Processor 4
    Number of cells = 13607
    Number of points = 18050
    Number of faces shared with processor 0 = 446
    Number of faces shared with processor 3 = 494
    Number of processor patches = 2
    Number of processor faces = 940
    Number of boundary faces = 4596

Processor 5
    Number of cells = 13623
    Number of points = 18038
    Number of faces shared with processor 6 = 454
    Number of faces shared with processor 7 = 430
    Number of processor patches = 2
    Number of processor faces = 884
    Number of boundary faces = 4552

Processor 6
    Number of cells = 13416
    Number of points = 17763
    Number of faces shared with processor 2 = 419
    Number of faces shared with processor 5 = 454
    Number of processor patches = 2
    Number of processor faces = 873
    Number of boundary faces = 4476

Processor 7
    Number of cells = 13544
    Number of points = 17933
    Number of faces shared with processor 5 = 430
    Number of faces shared with processor 9 = 448
    Number of processor patches = 2
    Number of processor faces = 878
    Number of boundary faces = 4532

Processor 8
    Number of cells = 13475
    Number of points = 17798
    Number of faces shared with processor 9 = 450
    Number of processor patches = 1
    Number of processor faces = 450
    Number of boundary faces = 4948

Processor 9
    Number of cells = 13533
    Number of points = 17929
    Number of faces shared with processor 7 = 448
    Number of faces shared with processor 8 = 450
    Number of processor patches = 2
    Number of processor faces = 898
    Number of boundary faces = 4532

Number of processor faces = 3794
Max number of cells = 13635 (0.995511% above average 13500.6)
Max number of processor patches = 2 (11.1111% above average 1.8)
Max number of faces between processors = 940 (23.8798% above average 758.8)

Time = 0
Using dynamicCode for patch freeSurface on field epsilon at line 32 in "/home/bm424/Projects/MOOptimisers/tempDirs/tmp12w19suf/0/epsilon/boundaryField/freeSurface"

Processor 0: field transfer
Processor 1: field transfer
Processor 2: field transfer
Processor 3: field transfer
Processor 4: field transfer
Processor 5: field transfer
Processor 6: field transfer
Processor 7: field transfer
Processor 8: field transfer
Processor 9: field transfer

End

/*---------------------------------------------------------------------------*\
| =========                 |                                                 |
| \\      /  F ield         | OpenFOAM: The Open Source CFD Toolbox           |
|  \\    /   O peration     | Version:  2312                                  |
|   \\  /    A nd           | Website:  www.openfoam.com                      |
|    \\/     M anipulation  |                                                 |
\*---------------------------------------------------------------------------*/
Build  : _e651d635-20240208 OPENFOAM=2312 patch=240220 version=2312
Arch   : "LSB;label=32;scalar=64"
Exec   : reconstructPar
Date   : Jan 20 2025
Time   : 19:02:48
Host   : work
PID    : 49242
--> FOAM Warning : 
    From Foam::fileName Foam::cwd_L()
    in file POSIX.C at line 552
    PWD is not the cwd() - reverting to physical description
I/O    : uncollated
--> FOAM Warning : 
    From Foam::fileName Foam::cwd_L()
    in file POSIX.C at line 552
    PWD is not the cwd() - reverting to physical description
Case   : /home/bm424/Projects/MOOptimisers/tempDirs/tmp12w19suf
nProcs : 1
trapFpe: Floating point exception trapping enabled (FOAM_SIGFPE).
fileModificationChecking : Monitoring run-time modified files using timeStampMaster (fileModificationSkew 5, maxFileModificationPolls 20)
allowSystemOperations : Allowing user-supplied system call operations

// * * * * * * * * * * * * * * * * * * * * * * * * * * * * * * * * * * * * * //
Create time



Reconstructing fields
region=region0

Time = 100

--> FOAM Warning : 
    From int main(int, char**)
    in file reconstructPar.C at line 369
    readUpdate for the reconstructed mesh:2
readUpdate for the processor meshes  :0
These should be equal or your addressing might be incorrect. Please check your time directories for any mesh directories.
Reconstructing FV fields

    Reconstructing volScalarFields

        Conc01
        Conc02
        Conc03
        Conc045
        eddyvisc
        epsilon
Using dynamicCode for patch freeSurface on field epsilon at line 14465 in "/home/bm424/Projects/MOOptimisers/tempDirs/tmp12w19suf/processor0/100/epsilon/boundaryField/freeSurface"
Using dynamicCode for patch freeSurface on field epsilon at line 14743 in "/home/bm424/Projects/MOOptimisers/tempDirs/tmp12w19suf/processor1/100/epsilon/boundaryField/freeSurface"
Using dynamicCode for patch freeSurface on field epsilon at line 14549 in "/home/bm424/Projects/MOOptimisers/tempDirs/tmp12w19suf/processor2/100/epsilon/boundaryField/freeSurface"
Using dynamicCode for patch freeSurface on field epsilon at line 14399 in "/home/bm424/Projects/MOOptimisers/tempDirs/tmp12w19suf/processor3/100/epsilon/boundaryField/freeSurface"
Using dynamicCode for patch freeSurface on field epsilon at line 14397 in "/home/bm424/Projects/MOOptimisers/tempDirs/tmp12w19suf/processor4/100/epsilon/boundaryField/freeSurface"
Using dynamicCode for patch freeSurface on field epsilon at line 14509 in "/home/bm424/Projects/MOOptimisers/tempDirs/tmp12w19suf/processor5/100/epsilon/boundaryField/freeSurface"
Using dynamicCode for patch freeSurface on field epsilon at line 14412 in "/home/bm424/Projects/MOOptimisers/tempDirs/tmp12w19suf/processor6/100/epsilon/boundaryField/freeSurface"
Using dynamicCode for patch freeSurface on field epsilon at line 14484 in "/home/bm424/Projects/MOOptimisers/tempDirs/tmp12w19suf/processor7/100/epsilon/boundaryField/freeSurface"
Using dynamicCode for patch freeSurface on field epsilon at line 14387 in "/home/bm424/Projects/MOOptimisers/tempDirs/tmp12w19suf/processor8/100/epsilon/boundaryField/freeSurface"
Using dynamicCode for patch freeSurface on field epsilon at line 14429 in "/home/bm424/Projects/MOOptimisers/tempDirs/tmp12w19suf/processor9/100/epsilon/boundaryField/freeSurface"
        k
        kineticenergy
        nut
        p

    Reconstructing volVectorFields

        U

    Reconstructing surfaceScalarFields

        phi

Reconstructing point fields

No point fields

No lagrangian fields

No FA fields

Time = 200

Reconstructing FV fields

    Reconstructing volScalarFields

        Conc01
        Conc02
        Conc03
        Conc045
        eddyvisc
        epsilon
        k
        kineticenergy
        nut
        p

    Reconstructing volVectorFields

        U

    Reconstructing surfaceScalarFields

        phi

Reconstructing point fields

No point fields

No lagrangian fields

No FA fields

Time = 300

Reconstructing FV fields

    Reconstructing volScalarFields

        Conc01
        Conc02
        Conc03
        Conc045
        eddyvisc
        epsilon
        k
        kineticenergy
        nut
        p

    Reconstructing volVectorFields

        U

    Reconstructing surfaceScalarFields

        phi

Reconstructing point fields

No point fields

No lagrangian fields

No FA fields


End

/*---------------------------------------------------------------------------*\
| =========                 |                                                 |
| \\      /  F ield         | OpenFOAM: The Open Source CFD Toolbox           |
|  \\    /   O peration     | Version:  2312                                  |
|   \\  /    A nd           | Website:  www.openfoam.com                      |
|    \\/     M anipulation  |                                                 |
\*---------------------------------------------------------------------------*/
Build  : _e651d635-20240208 OPENFOAM=2312 patch=240220 version=2312
Arch   : "LSB;label=32;scalar=64"
Exec   : postProcess -func sampleDict
Date   : Jan 20 2025
Time   : 19:02:53
Host   : work
PID    : 49245
--> FOAM Warning : 
    From Foam::fileName Foam::cwd_L()
    in file POSIX.C at line 552
    PWD is not the cwd() - reverting to physical description
I/O    : uncollated
--> FOAM Warning : 
    From Foam::fileName Foam::cwd_L()
    in file POSIX.C at line 552
    PWD is not the cwd() - reverting to physical description
Case   : /home/bm424/Projects/MOOptimisers/tempDirs/tmp12w19suf
nProcs : 1
trapFpe: Floating point exception trapping enabled (FOAM_SIGFPE).
fileModificationChecking : Monitoring run-time modified files using timeStampMaster (fileModificationSkew 5, maxFileModificationPolls 20)
allowSystemOperations : Allowing user-supplied system call operations

// * * * * * * * * * * * * * * * * * * * * * * * * * * * * * * * * * * * * * //
Create time

Create mesh for time = 0

Sampled set:
    point_a -> raw
    point_b -> raw
    point_c -> raw

Time = 0

Reading fields:
    volScalarField: Conc01 Conc02 Conc03 Conc045

Executing functionObjects

Time = 0.05

Reading fields:
    volScalarField: Conc01 Conc02 Conc03 Conc045

Executing functionObjects

Time = 100

Reading fields:
    volScalarField: Conc01 Conc02 Conc03 Conc045

Executing functionObjects

Time = 200

Reading fields:
    volScalarField: Conc01 Conc02 Conc03 Conc045

Executing functionObjects

Time = 300

Reading fields:
    volScalarField: Conc01 Conc02 Conc03 Conc045

Executing functionObjects

End

60.15983750000001
65.16763750000001
253.171775
Inlet concentration updated to 0.000267612943609208
Inlet concentration updated to 0.000267612943609208
Inlet concentration updated to 0.000267612943609208
Inlet concentration updated to 0.000267612943609208
Wall roughness updated to 0.012343056781062619
Wall roughness updated to 0.012343056781062619
Wall roughness updated to 0.012343056781062619
Max Cell Size updated to 0.13135967486731395
Turbulence Constant updated to 0.7942765534802059
Inlet Turbulent Viscosity updated to 0.03842357871432659
/*---------------------------------------------------------------------------*\
| =========                 |                                                 |
| \\      /  F ield         | OpenFOAM: The Open Source CFD Toolbox           |
|  \\    /   O peration     | Version:  2312                                  |
|   \\  /    A nd           | Website:  www.openfoam.com                      |
|    \\/     M anipulation  |                                                 |
\*---------------------------------------------------------------------------*/
Build  : _e651d635-20240208 OPENFOAM=2312 patch=240220 version=2312
Arch   : "LSB;label=32;scalar=64"
Exec   : cartesianMesh
Date   : Jan 20 2025
Time   : 19:02:54
Host   : work
PID    : 49246
--> FOAM Warning : 
    From Foam::fileName Foam::cwd_L()
    in file POSIX.C at line 552
    PWD is not the cwd() - reverting to physical description
I/O    : uncollated
--> FOAM Warning : 
    From Foam::fileName Foam::cwd_L()
    in file POSIX.C at line 552
    PWD is not the cwd() - reverting to physical description
Case   : /home/bm424/Projects/MOOptimisers/tempDirs/tmpjl4cmx5w
nProcs : 1
trapFpe: Floating point exception trapping enabled (FOAM_SIGFPE).
fileModificationChecking : Monitoring run-time modified files using timeStampMaster (fileModificationSkew 5, maxFileModificationPolls 20)
allowSystemOperations : Allowing user-supplied system call operations

// * * * * * * * * * * * * * * * * * * * * * * * * * * * * * * * * * * * * * //
Create time

Setting root cube size and refinement parameters
Root box (-21.8781 -33.1281 -32.8581) (45.3781 34.1281 34.3981)
Requested cell size corresponds to octree level 9
Requested boundary cell size corresponds to octree level 10
Refining boundary
Refining boundary boxes to the given size
Finished refining boundary boxes
Refining boxes intersecting surface meshes
Finished refinement of boxes intersecting surface meshes
Refining boxes intersecting edge meshes
Finished refinement of boxes intersecting edge meshes
Performing automatic refinement
Performing automatic refinement
Marking inside/outside.
Number of internal boxes is 22830
Number of outside boxes is 28718
Number of data boxes is 22982
Number of unknown boxes is 0
Refining boxes near DATA boxes
Marking inside/outside.
Number of internal boxes is 29872
Number of outside boxes is 28718
Number of data boxes is 22982
Number of unknown boxes is 0
Finished refining boxes near DATA boxes
Extracting polyMesh
Creating octree vertices
Octree nodes 70188
Resizing points!
Finished creating octree vertices
Creating polyMesh from octree
Reordering boundary faces 
Finished reordering boundary faces
Finished creating polyMesh
Mesh has :
47233 vertices 
106189 faces
29592 cells
Finished extracting polyMesh
Checking for irregular surface connections
Checking cells connected to surface vertices
Found 21686 boundary faces 
Found 0 problematic vertices
Finished checking cells connected to surface vertices
Checking for non - manifold surface edges
Found 0 non - manifold edges
Finished checking for non - manifold surface edges
Checking faces connections to surface vertices
Found 0 invalid connections
Finished checking faces connections to surface vertices
Finished checking for irregular surface connections
Found 21686 boundary faces 
Found 0 non - mappable cells
Checking cell connections
Finished checking cell connections
Found 21686 boundary faces 
Marked 0 faces for decomposition
Found 21686 boundary faces 
Smoothing mesh surface before mapping.
Found 0 corners at the surface of the volume mesh
Found 0 edge points at the surface of the volume mesh
Starting untangling the surface of the volume mesh
Number of inverted boundary faces is 0
Finished untangling the surface of the volume mesh
Found 0 corners at the surface of the volume mesh
Found 0 edge points at the surface of the volume mesh
Starting untangling the surface of the volume mesh
Number of inverted boundary faces is 0
Finished untangling the surface of the volume mesh
Found 0 corners at the surface of the volume mesh
Found 0 edge points at the surface of the volume mesh
Starting untangling the surface of the volume mesh
Number of inverted boundary faces is 0
Finished untangling the surface of the volume mesh
Finished smoothing mesh surface before mapping.
Mapping vertices onto surface
Finished mapping vertices onto surface
Found 0 corners at the surface of the volume mesh
Found 0 edge points at the surface of the volume mesh
Starting untangling the surface of the volume mesh
Number of inverted boundary faces is 0
Finished untangling the surface of the volume mesh
Found 21686 boundary faces 
Extracting edges
Starting topological adjustment of patches
No topological adjustment was needed
Starting geometrical adjustment of patches
Found 8 corners at the surface of the volume mesh
Found 1556 edge points at the surface of the volume mesh
12 edge groups found!
No geometrical adjustment was needed
Found 21686 boundary faces 
Found 8 corners at the surface of the volume mesh
Found 1556 edge points at the surface of the volume mesh
Performing patch correction
Found 8 corners at the surface of the volume mesh
Found 1556 edge points at the surface of the volume mesh
Finished with patch correction
Found 21736 boundary faces 
Removing selected cells from the mesh
New cells size 29542
Reordering boundary faces 
Finished reordering boundary faces
Removing faces
Finished removing faces
Finished removing selected cells from the mesh
Adding new cells 
Adding 350 cells to the mesh
Finished adding cells to the mesh
Reordering bnd faces
Reordering boundary faces 
Finished reordering boundary faces
Finding bnd faces
Found 21736 boundary faces 
Mapping vertices with respect to surface patches
Found 8 corners at the surface of the volume mesh
Found 1556 edge points at the surface of the volume mesh
12 edge groups found!
Finished mapping vertices with respect to surface patches
Found 21736 boundary faces 
Found 8 corners at the surface of the volume mesh
Found 1556 edge points at the surface of the volume mesh
Optimizing edges. Iteration:.....
Optimizing surface vertices. Iteration:.....
Starting untangling the surface of the volume mesh
Number of inverted boundary faces is 0
Finished untangling the surface of the volume mesh
Found 21736 boundary faces 
Found 8 corners at the surface of the volume mesh
Found 1556 edge points at the surface of the volume mesh
Found 8 corners at the surface of the volume mesh
Found 1556 edge points at the surface of the volume mesh
Starting creating layer cells
Adding 23312 cells to the mesh
Resizing cells!
Resizing faces!
Finished adding cells to the mesh
Reordering boundary faces 
Finished reordering boundary faces
Finished creating layer cells
Found 24896 boundary faces 
Found 8 corners at the surface of the volume mesh
Found 1580 edge points at the surface of the volume mesh
Optimizing edges. Iteration:.....
Optimizing surface vertices. Iteration:.....
Starting untangling the surface of the volume mesh
Number of inverted boundary faces is 0
Finished untangling the surface of the volume mesh
Found 24896 boundary faces 
Found 8 corners at the surface of the volume mesh
Found 1580 edge points at the surface of the volume mesh
Starting smoothing the mesh
Starting untangling the mesh
Iteration 0. Number of bad faces is 0
Finished untangling the mesh
Finished smoothing the mesh
Iteration 0. Number of bad faces is 0
Starting untangling the mesh
Iteration 0. Number of bad faces is 0
Finished untangling the mesh
Found 24896 boundary faces 
Found 8 corners at the surface of the volume mesh
Found 1580 edge points at the surface of the volume mesh
Iteration 0. Number of bad faces is 0
Starting untangling the mesh
Iteration 0. Number of bad faces is 0
Finished untangling the mesh
Renumbering the mesh
Finished renumbering the mesh
Renaming boundary patches
Finished renaming boundary patches
ExecutionTime = 46.2 s  ClockTime = 5 s

End

/*---------------------------------------------------------------------------*\
| =========                 |                                                 |
| \\      /  F ield         | OpenFOAM: The Open Source CFD Toolbox           |
|  \\    /   O peration     | Version:  2312                                  |
|   \\  /    A nd           | Website:  www.openfoam.com                      |
|    \\/     M anipulation  |                                                 |
\*---------------------------------------------------------------------------*/
Build  : _e651d635-20240208 OPENFOAM=2312 patch=240220 version=2312
Arch   : "LSB;label=32;scalar=64"
Exec   : renumberMesh
Date   : Jan 20 2025
Time   : 19:02:59
Host   : work
PID    : 50122
--> FOAM Warning : 
    From Foam::fileName Foam::cwd_L()
    in file POSIX.C at line 552
    PWD is not the cwd() - reverting to physical description
I/O    : uncollated
--> FOAM Warning : 
    From Foam::fileName Foam::cwd_L()
    in file POSIX.C at line 552
    PWD is not the cwd() - reverting to physical description
Case   : /home/bm424/Projects/MOOptimisers/tempDirs/tmpjl4cmx5w
nProcs : 1
trapFpe: Floating point exception trapping enabled (FOAM_SIGFPE).
fileModificationChecking : Monitoring run-time modified files using timeStampMaster (fileModificationSkew 5, maxFileModificationPolls 20)
allowSystemOperations : Allowing user-supplied system call operations

// * * * * * * * * * * * * * * * * * * * * * * * * * * * * * * * * * * * * * //
Create time

Create mesh for time = 0

Mesh region0 size: 53204
Before renumbering :
    band           : 52232
    profile        : 4.72937e+08

Using default renumberMethod.

Selecting renumberMethod CuthillMcKee

Reading volScalarField: Conc01 Conc02 Conc03 Conc045 S_explicit01 S_explicit02 S_explicit03 S_explicit045 S_implicit eddyvisc epsilonUsing dynamicCode for patch freeSurface on field epsilon at line 32 in "/home/bm424/Projects/MOOptimisers/tempDirs/tmpjl4cmx5w/0/epsilon/boundaryField/freeSurface"
 k kineticenergy nut p
Reading volVectorField: U Umod01 Umod02 Umod03 Umod045

After renumbering :
    band           : 416
    profile        : 1.66844e+07

Writing mesh to "0.05"
End

/*---------------------------------------------------------------------------*\
| =========                 |                                                 |
| \\      /  F ield         | OpenFOAM: The Open Source CFD Toolbox           |
|  \\    /   O peration     | Version:  2312                                  |
[...]
Using dynamicCode for patch freeSurface on field epsilon at line 6906 in "/home/bm424/Projects/MOOptimisers/tempDirs/tmpnxehjg9j/processor6/100/epsilon/boundaryField/freeSurface"
Using dynamicCode for patch freeSurface on field epsilon at line 7157 in "/home/bm424/Projects/MOOptimisers/tempDirs/tmpnxehjg9j/processor7/100/epsilon/boundaryField/freeSurface"
Using dynamicCode for patch freeSurface on field epsilon at line 6913 in "/home/bm424/Projects/MOOptimisers/tempDirs/tmpnxehjg9j/processor8/100/epsilon/boundaryField/freeSurface"
Using dynamicCode for patch freeSurface on field epsilon at line 7010 in "/home/bm424/Projects/MOOptimisers/tempDirs/tmpnxehjg9j/processor9/100/epsilon/boundaryField/freeSurface"
        k
        kineticenergy
        nut
        p

    Reconstructing volVectorFields

        U

    Reconstructing surfaceScalarFields

        phi

Reconstructing point fields

No point fields

No lagrangian fields

No FA fields

Time = 200

Reconstructing FV fields

    Reconstructing volScalarFields

        Conc01
        Conc02
        Conc03
        Conc045
        eddyvisc
        epsilon
        k
        kineticenergy
        nut
        p

    Reconstructing volVectorFields

        U

    Reconstructing surfaceScalarFields

        phi

Reconstructing point fields

No point fields

No lagrangian fields

No FA fields

Time = 300

Reconstructing FV fields

    Reconstructing volScalarFields

        Conc01
        Conc02
        Conc03
        Conc045
        eddyvisc
        epsilon
        k
        kineticenergy
        nut
        p

    Reconstructing volVectorFields

        U

    Reconstructing surfaceScalarFields

        phi

Reconstructing point fields

No point fields

No lagrangian fields

No FA fields


End

/*---------------------------------------------------------------------------*\
| =========                 |                                                 |
| \\      /  F ield         | OpenFOAM: The Open Source CFD Toolbox           |
|  \\    /   O peration     | Version:  2312                                  |
|   \\  /    A nd           | Website:  www.openfoam.com                      |
|    \\/     M anipulation  |                                                 |
\*---------------------------------------------------------------------------*/
Build  : _e651d635-20240208 OPENFOAM=2312 patch=240220 version=2312
Arch   : "LSB;label=32;scalar=64"
Exec   : postProcess -func sampleDict
Date   : Jan 20 2025
Time   : 19:33:12
Host   : work
PID    : 51582
--> FOAM Warning : 
    From Foam::fileName Foam::cwd_L()
    in file POSIX.C at line 552
    PWD is not the cwd() - reverting to physical description
I/O    : uncollated
--> FOAM Warning : 
    From Foam::fileName Foam::cwd_L()
    in file POSIX.C at line 552
    PWD is not the cwd() - reverting to physical description
Case   : /home/bm424/Projects/MOOptimisers/tempDirs/tmpnxehjg9j
nProcs : 1
trapFpe: Floating point exception trapping enabled (FOAM_SIGFPE).
fileModificationChecking : Monitoring run-time modified files using timeStampMaster (fileModificationSkew 5, maxFileModificationPolls 20)
allowSystemOperations : Allowing user-supplied system call operations

// * * * * * * * * * * * * * * * * * * * * * * * * * * * * * * * * * * * * * //
Create time

Create mesh for time = 0

Sampled set:
    point_a -> raw
    point_b -> raw
    point_c -> raw

Time = 0

Reading fields:
    volScalarField: Conc01 Conc02 Conc03 Conc045

Executing functionObjects

Time = 0.05

Reading fields:
    volScalarField: Conc01 Conc02 Conc03 Conc045

Executing functionObjects

Time = 100

Reading fields:
    volScalarField: Conc01 Conc02 Conc03 Conc045

Executing functionObjects

Time = 200

Reading fields:
    volScalarField: Conc01 Conc02 Conc03 Conc045

Executing functionObjects

Time = 300

Reading fields:
    volScalarField: Conc01 Conc02 Conc03 Conc045

Executing functionObjects

End

103.94985625000001
64.9570625
30.4153
Inlet concentration updated to 0.0002098677451057743
Inlet concentration updated to 0.0002098677451057743
Inlet concentration updated to 0.0002098677451057743
Inlet concentration updated to 0.0002098677451057743
Wall roughness updated to 0.07250589396928434
Wall roughness updated to 0.07250589396928434
Wall roughness updated to 0.07250589396928434
Max Cell Size updated to 0.10647305750005175
Turbulence Constant updated to 1.140528562479023
Inlet Turbulent Viscosity updated to 0.030171176349684074
/*---------------------------------------------------------------------------*\
| =========                 |                                                 |
| \\      /  F ield         | OpenFOAM: The Open Source CFD Toolbox           |
|  \\    /   O peration     | Version:  2312                                  |
|   \\  /    A nd           | Website:  www.openfoam.com                      |
|    \\/     M anipulation  |                                                 |
\*---------------------------------------------------------------------------*/
Build  : _e651d635-20240208 OPENFOAM=2312 patch=240220 version=2312
Arch   : "LSB;label=32;scalar=64"
Exec   : cartesianMesh
Date   : Jan 20 2025
Time   : 19:33:13
Host   : work
PID    : 51583
--> FOAM Warning : 
    From Foam::fileName Foam::cwd_L()
    in file POSIX.C at line 552
    PWD is not the cwd() - reverting to physical description
I/O    : uncollated
--> FOAM Warning : 
    From Foam::fileName Foam::cwd_L()
    in file POSIX.C at line 552
    PWD is not the cwd() - reverting to physical description
Case   : /home/bm424/Projects/MOOptimisers/tempDirs/tmpxst_5fbn
nProcs : 1
trapFpe: Floating point exception trapping enabled (FOAM_SIGFPE).
fileModificationChecking : Monitoring run-time modified files using timeStampMaster (fileModificationSkew 5, maxFileModificationPolls 20)
allowSystemOperations : Allowing user-supplied system call operations

// * * * * * * * * * * * * * * * * * * * * * * * * * * * * * * * * * * * * * //
Create time

Setting root cube size and refinement parameters
Root box (-15.5071 -26.7571 -26.4871) (39.0071 27.7571 28.0271)
Requested cell size corresponds to octree level 9
Requested boundary cell size corresponds to octree level 10
Refining boundary
Refining boundary boxes to the given size
Finished refining boundary boxes
Refining boxes intersecting surface meshes
Finished refinement of boxes intersecting surface meshes
Refining boxes intersecting edge meshes
Finished refinement of boxes intersecting edge meshes
Performing automatic refinement
Performing automatic refinement
Marking inside/outside.
Number of internal boxes is 31908
Number of outside boxes is 44040
Number of data boxes is 35850
Number of unknown boxes is 0
Refining boxes near DATA boxes
Marking inside/outside.
Number of internal boxes is 60454
Number of outside boxes is 44040
Number of data boxes is 35850
Number of unknown boxes is 0
Finished refining boxes near DATA boxes
Extracting polyMesh
Creating octree vertices
Octree nodes 123965
Resizing points!
Finished creating octree vertices
Creating polyMesh from octree
Reordering boundary faces 
Finished reordering boundary faces
Finished creating polyMesh
Mesh has :
88148 vertices 
207915 faces
60008 cells
Finished extracting polyMesh
Checking for irregular surface connections
Checking cells connected to surface vertices
Found 34344 boundary faces 
Found 0 problematic vertices
Finished checking cells connected to surface vertices
Checking for non - manifold surface edges
Found 0 non - manifold edges
Finished checking for non - manifold surface edges
Checking faces connections to surface vertices
Found 0 invalid connections
Finished checking faces connections to surface vertices
Finished checking for irregular surface connections
Found 34344 boundary faces 
Found 0 non - mappable cells
Checking cell connections
Finished checking cell connections
Found 34344 boundary faces 
Marked 0 faces for decomposition
Found 34344 boundary faces 
Smoothing mesh surface before mapping.
Found 0 corners at the surface of the volume mesh
Found 0 edge points at the surface of the volume mesh
Starting untangling the surface of the volume mesh
Number of inverted boundary faces is 0
Finished untangling the surface of the volume mesh
Found 0 corners at the surface of the volume mesh
Found 0 edge points at the surface of the volume mesh
Starting untangling the surface of the volume mesh
Number of inverted boundary faces is 0
Finished untangling the surface of the volume mesh
Found 0 corners at the surface of the volume mesh
Found 0 edge points at the surface of the volume mesh
Starting untangling the surface of the volume mesh
Number of inverted boundary faces is 0
Finished untangling the surface of the volume mesh
Finished smoothing mesh surface before mapping.
Mapping vertices onto surface
Finished mapping vertices onto surface
Found 0 corners at the surface of the volume mesh
Found 0 edge points at the surface of the volume mesh
Starting untangling the surface of the volume mesh
Number of inverted boundary faces is 0
Finished untangling the surface of the volume mesh
Found 34344 boundary faces 
Extracting edges
Starting topological adjustment of patches
No topological adjustment was needed
Starting geometrical adjustment of patches
Found 8 corners at the surface of the volume mesh
Found 1932 edge points at the surface of the volume mesh
12 edge groups found!
No geometrical adjustment was needed
Found 34344 boundary faces 
Found 8 corners at the surface of the volume mesh
Found 1932 edge points at the surface of the volume mesh
Performing patch correction
Found 8 corners at the surface of the volume mesh
Found 1932 edge points at the surface of the volume mesh
Finished with patch correction
Found 34406 boundary faces 
Removing selected cells from the mesh
New cells size 59950
Reordering boundary faces 
Finished reordering boundary faces
Removing faces
Finished removing faces
Finished removing selected cells from the mesh
Adding new cells 
Adding 410 cells to the mesh
Finished adding cells to the mesh
Reordering bnd faces
Reordering boundary faces 
Finished reordering boundary faces
Finding bnd faces
Found 34406 boundary faces 
Mapping vertices with respect to surface patches
Found 8 corners at the surface of the volume mesh
Found 1932 edge points at the surface of the volume mesh
12 edge groups found!
Finished mapping vertices with respect to surface patches
Found 34406 boundary faces 
Found 8 corners at the surface of the volume mesh
Found 1932 edge points at the surface of the volume mesh
Optimizing edges. Iteration:.....
Optimizing surface vertices. Iteration:.....
Starting untangling the surface of the volume mesh
Number of inverted boundary faces is 0
Finished untangling the surface of the volume mesh
Found 34406 boundary faces 
Found 8 corners at the surface of the volume mesh
Found 1932 edge points at the surface of the volume mesh
Found 8 corners at the surface of the volume mesh
Found 1932 edge points at the surface of the volume mesh
Starting creating layer cells
Adding 36358 cells to the mesh
Resizing cells!
Resizing faces!
Finished adding cells to the mesh
Reordering boundary faces 
Finished reordering boundary faces
Finished creating layer cells
Found 38318 boundary faces 
Found 8 corners at the surface of the volume mesh
Found 1956 edge points at the surface of the volume mesh
Optimizing edges. Iteration:.....
Optimizing surface vertices. Iteration:.....
Starting untangling the surface of the volume mesh
Number of inverted boundary faces is 0
Finished untangling the surface of the volume mesh
Found 38318 boundary faces 
Found 8 corners at the surface of the volume mesh
Found 1956 edge points at the surface of the volume mesh
Starting smoothing the mesh
Starting untangling the mesh
Iteration 0. Number of bad faces is 0
Finished untangling the mesh
Finished smoothing the mesh
Iteration 0. Number of bad faces is 0
Starting untangling the mesh
Iteration 0. Number of bad faces is 0
Finished untangling the mesh
Found 38318 boundary faces 
Found 8 corners at the surface of the volume mesh
Found 1956 edge points at the surface of the volume mesh
Iteration 0. Number of bad faces is 0
Starting untangling the mesh
Iteration 0. Number of bad faces is 0
Finished untangling the mesh
Renumbering the mesh
Finished renumbering the mesh
Renaming boundary patches
Finished renaming boundary patches
ExecutionTime = 75.09 s  ClockTime = 8 s

End

/*---------------------------------------------------------------------------*\
| =========                 |                                                 |
| \\      /  F ield         | OpenFOAM: The Open Source CFD Toolbox           |
|  \\    /   O peration     | Version:  2312                                  |
|   \\  /    A nd           | Website:  www.openfoam.com                      |
|    \\/     M anipulation  |                                                 |
\*---------------------------------------------------------------------------*/
Build  : _e651d635-20240208 OPENFOAM=2312 patch=240220 version=2312
Arch   : "LSB;label=32;scalar=64"
Exec   : renumberMesh
Date   : Jan 20 2025
Time   : 19:33:21
Host   : work
PID    : 52466
--> FOAM Warning : 
    From Foam::fileName Foam::cwd_L()
    in file POSIX.C at line 552
    PWD is not the cwd() - reverting to physical description
I/O    : uncollated
--> FOAM Warning : 
    From Foam::fileName Foam::cwd_L()
    in file POSIX.C at line 552
    PWD is not the cwd() - reverting to physical description
Case   : /home/bm424/Projects/MOOptimisers/tempDirs/tmpxst_5fbn
nProcs : 1
trapFpe: Floating point exception trapping enabled (FOAM_SIGFPE).
fileModificationChecking : Monitoring run-time modified files using timeStampMaster (fileModificationSkew 5, maxFileModificationPolls 20)
allowSystemOperations : Allowing user-supplied system call operations

// * * * * * * * * * * * * * * * * * * * * * * * * * * * * * * * * * * * * * //
Create time

Create mesh for time = 0

Mesh region0 size: 96718
Before renumbering :
    band           : 96287
    profile        : 1.33492e+09

Using default renumberMethod.

Selecting renumberMethod CuthillMcKee

Reading volScalarField: Conc01 Conc02 Conc03 Conc045 S_explicit01 S_explicit02 S_explicit03 S_explicit045 S_implicit eddyvisc epsilonUsing dynamicCode for patch freeSurface on field epsilon at line 32 in "/home/bm424/Projects/MOOptimisers/tempDirs/tmpxst_5fbn/0/epsilon/boundaryField/freeSurface"
 k kineticenergy nut p
Reading volVectorField: U Umod01 Umod02 Umod03 Umod045

After renumbering :
    band           : 581
    profile        : 4.58825e+07

Writing mesh to "0.05"
End

/*---------------------------------------------------------------------------*\
| =========                 |                                                 |
| \\      /  F ield         | OpenFOAM: The Open Source CFD Toolbox           |
|  \\    /   O peration     | Version:  2312                                  |
|   \\  /    A nd           | Website:  www.openfoam.com                      |
|    \\/     M anipulation  |                                                 |
\*---------------------------------------------------------------------------*/
Build  : _e651d635-20240208 OPENFOAM=2312 patch=240220 version=2312
Arch   : "LSB;label=32;scalar=64"
Exec   : decomposePar
Date   : Jan 20 2025
Time   : 19:33:22
Host   : work
PID    : 52468
--> FOAM Warning : 
    From Foam::fileName Foam::cwd_L()
    in file POSIX.C at line 552
    PWD is not the cwd() - reverting to physical description
I/O    : uncollated
--> FOAM Warning : 
    From Foam::fileName Foam::cwd_L()
    in file POSIX.C at line 552
    PWD is not the cwd() - reverting to physical description
Case   : /home/bm424/Projects/MOOptimisers/tempDirs/tmpxst_5fbn
nProcs : 1
trapFpe: Floating point exception trapping enabled (FOAM_SIGFPE).
fileModificationChecking : Monitoring run-time modified files using timeStampMaster (fileModificationSkew 5, maxFileModificationPolls 20)
allowSystemOperations : Allowing user-supplied system call operations

// * * * * * * * * * * * * * * * * * * * * * * * * * * * * * * * * * * * * * //
Create time



Decomposing mesh

Create mesh

Calculating distribution of cells
Decomposition method scotch [10] (region region0)

Finished decomposition in 0.32 s

Calculating original mesh data

Distributing cells to processors

Distributing faces to processors

Distributing points to processors

Constructing processor meshes

Processor 0
    Number of cells = 9701
    Number of points = 12758
    Number of faces shared with processor 1 = 207
    Number of faces shared with processor 2 = 288
    Number of processor patches = 2
    Number of processor faces = 495
    Number of boundary faces = 3788

Processor 1
    Number of cells = 9575
    Number of points = 13041
    Number of faces shared with processor 0 = 207
    Number of processor patches = 1
    Number of processor faces = 207
    Number of boundary faces = 4936

Processor 2
    Number of cells = 9690
    Number of points = 13002
    Number of faces shared with processor 0 = 288
    Number of faces shared with processor 3 = 328
    Number of processor patches = 2
    Number of processor faces = 616
    Number of boundary faces = 3717

Processor 3
    Number of cells = 9714
    Number of points = 13117
    Number of faces shared with processor 2 = 328
    Number of faces shared with processor 4 = 393
    Number of processor patches = 2
    Number of processor faces = 721
    Number of boundary faces = 3679

Processor 4
    Number of cells = 9579
    Number of points = 12949
    Number of faces shared with processor 3 = 393
    Number of faces shared with processor 6 = 348
    Number of processor patches = 2
    Number of processor faces = 741
    Number of boundary faces = 3632

Processor 5
    Number of cells = 9575
    Number of points = 12951
    Number of faces shared with processor 6 = 346
    Number of faces shared with processor 9 = 399
    Number of processor patches = 2
    Number of processor faces = 745
    Number of boundary faces = 3635

Processor 6
    Number of cells = 9663
    Number of points = 13023
    Number of faces shared with processor 4 = 348
    Number of faces shared with processor 5 = 346
    Number of processor patches = 2
    Number of processor faces = 694
    Number of boundary faces = 3652

Processor 7
    Number of cells = 9767
    Number of points = 13048
    Number of faces shared with processor 8 = 385
    Number of processor patches = 1
    Number of processor faces = 385
    Number of boundary faces = 3927

Processor 8
    Number of cells = 9762
    Number of points = 13185
    Number of faces shared with processor 7 = 385
    Number of faces shared with processor 9 = 370
    Number of processor patches = 2
    Number of processor faces = 755
    Number of boundary faces = 3683

Processor 9
    Number of cells = 9692
    Number of points = 13125
    Number of faces shared with processor 5 = 399
    Number of faces shared with processor 8 = 370
    Number of processor patches = 2
    Number of processor faces = 769
    Number of boundary faces = 3669

Number of processor faces = 3064
Max number of cells = 9767 (0.984305% above average 9671.8)
Max number of processor patches = 2 (11.1111% above average 1.8)
Max number of faces between processors = 769 (25.4896% above average 612.8)

Time = 0
Using dynamicCode for patch freeSurface on field epsilon at line 32 in "/home/bm424/Projects/MOOptimisers/tempDirs/tmpxst_5fbn/0/epsilon/boundaryField/freeSurface"

Processor 0: field transfer
Processor 1: field transfer
Processor 2: field transfer
Processor 3: field transfer
Processor 4: field transfer
Processor 5: field transfer
Processor 6: field transfer
Processor 7: field transfer
Processor 8: field transfer
Processor 9: field transfer

End

