/*---------------------------------------------------------------------------*\
| =========                 |                                                 |
| \\      /  F ield         | OpenFOAM: The Open Source CFD Toolbox           |
|  \\    /   O peration     | Version:  2312                                  |
|   \\  /    A nd           | Website:  www.openfoam.com                      |
|    \\/     M anipulation  |                                                 |
\*---------------------------------------------------------------------------*/
Build  : _e651d635-20240208 OPENFOAM=2312 patch=240220 version=2312
Arch   : "LSB;label=32;scalar=64"
Exec   : sediDriftFoam -parallel
Date   : Jan 21 2025
Time   : 23:34:41
Host   : work
PID    : 81305
I/O    : uncollated
Case   : /home/bm424/Projects/MOOptimisers/tempDirs/tmp9x81en8u
nProcs : 10
Hosts  :
(
    (work 10)
)
Pstream initialized with:
    floatTransfer      : false
    nProcsSimpleSum    : 0
    nonBlockingExchange: 0 (tuning: 0)
    exchange algorithm : 0
    commsType          : nonBlocking
    polling iterations : 0
trapFpe: Floating point exception trapping enabled (FOAM_SIGFPE).
fileModificationChecking : Monitoring run-time modified files using timeStampMaster (fileModificationSkew 5, maxFileModificationPolls 20)
allowSystemOperations : Allowing user-supplied system call operations

// * * * * * * * * * * * * * * * * * * * * * * * * * * * * * * * * * * * * * //
Create time

Create mesh for time = 0


SIMPLE: convergence criteria
    field p	 tolerance 0.0001
    field U	 tolerance 1e-06
    field "(k|epsilon|omega|f|v2|Conc01|Conc02|Conc03|Conc045)"	 tolerance 1e-05

Reading field p

Reading field U

Reading field Umod01

Reading field Umod02

Reading field Umod03

Reading field Umod045

Reading field nut

Reading field Conc01

Reading field Conc02

Reading field Conc03

Reading field Conc045

Reading/calculating face flux field phi

Reading/calculating face flux field phi_c01 + phi_c01

Reading/calculating face flux field phi_c02 + phi_c02

Reading/calculating face flux field phi_c03 + phi_c03

Reading/calculating face flux field phi_c045 + phi_c045

Selecting incompressible transport model Newtonian
Selecting turbulence model type RAS
Selecting RAS turbulence model kEpsilon
Using dynamicCode for patch freeSurface on field epsilon at line 38 in "/home/bm424/Projects/MOOptimisers/tempDirs/tmp9x81en8u/processor0/0/epsilon/boundaryField/freeSurface"
RAS
{
    RASModel        kEpsilon;
    turbulence      yes;
    printCoeffs     yes;
    sigmaEps        1.22649;
    Cmu             0.09;
    C1              1.44;
    C2              1.92;
    C3              0;
    sigmak          1;
}

No MRF models present

No finite volume options present

Starting time loop

Time = 0.05

smoothSolver:  Solving for Ux, Initial residual = 1, Final residual = 0.0927659, No Iterations 2
smoothSolver:  Solving for Uy, Initial residual = 1, Final residual = 0.046662, No Iterations 3
smoothSolver:  Solving for Uz, Initial residual = 1, Final residual = 0.068525, No Iterations 4
GAMG:  Solving for p, Initial residual = 1, Final residual = 0.0684775, No Iterations 6
time step continuity errors : sum local = 0.000203299, global = 6.23081e-06, cumulative = 6.23081e-06
depth: 1.54
smoothSolver:  Solving for epsilon, Initial residual = 0.730045, Final residual = 0.00227368, No Iterations 1
smoothSolver:  Solving for k, Initial residual = 1, Final residual = 0.00539514, No Iterations 1
smoothSolver:  Solving for Conc01, Initial residual = 1, Final residual = 0.0284061, No Iterations 4
smoothSolver:  Solving for Conc02, Initial residual = 1, Final residual = 0.0285959, No Iterations 4
smoothSolver:  Solving for Conc03, Initial residual = 1, Final residual = 0.0288218, No Iterations 4
smoothSolver:  Solving for Conc045, Initial residual = 1, Final residual = 0.0292959, No Iterations 4
ExecutionTime = 0.69 s  ClockTime = 1 s

Time = 0.1

smoothSolver:  Solving for Ux, Initial residual = 0.897738, Final residual = 0.059385, No Iterations 3
smoothSolver:  Solving for Uy, Initial residual = 0.508813, Final residual = 0.0222272, No Iterations 3
smoothSolver:  Solving for Uz, Initial residual = 0.516486, Final residual = 0.0339819, No Iterations 3
GAMG:  Solving for p, Initial residual = 0.00694138, Final residual = 0.000415562, No Iterations 4
time step continuity errors : sum local = 0.00422452, global = -0.000137734, cumulative = -0.000131503
depth: 1.54
smoothSolver:  Solving for epsilon, Initial residual = 0.652883, Final residual = 0.00473837, No Iterations 1
smoothSolver:  Solving for k, Initial residual = 0.590307, Final residual = 0.00677229, No Iterations 1
smoothSolver:  Solving for Conc01, Initial residual = 0.140949, Final residual = 0.00365368, No Iterations 5
smoothSolver:  Solving for Conc02, Initial residual = 0.14115, Final residual = 0.00368724, No Iterations 5
smoothSolver:  Solving for Conc03, Initial residual = 0.14133, Final residual = 0.00371985, No Iterations 5
smoothSolver:  Solving for Conc045, Initial residual = 0.141396, Final residual = 0.00377857, No Iterations 5
ExecutionTime = 1.17 s  ClockTime = 1 s

Time = 0.15

smoothSolver:  Solving for Ux, Initial residual = 0.452585, Final residual = 0.0291696, No Iterations 2
smoothSolver:  Solving for Uy, Initial residual = 0.490278, Final residual = 0.0285904, No Iterations 2
smoothSolver:  Solving for Uz, Initial residual = 0.456301, Final residual = 0.0346414, No Iterations 2
GAMG:  Solving for p, Initial residual = 0.145602, Final residual = 0.00996184, No Iterations 2
time step continuity errors : sum local = 0.00341941, global = 5.97734e-05, cumulative = -7.173e-05
depth: 1.54
smoothSolver:  Solving for epsilon, Initial residual = 0.609541, Final residual = 0.00505111, No Iterations 1
smoothSolver:  Solving for k, Initial residual = 0.388411, Final residual = 0.00485125, No Iterations 1
smoothSolver:  Solving for Conc01, Initial residual = 0.0773414, Final residual = 0.00231627, No Iterations 5
smoothSolver:  Solving for Conc02, Initial residual = 0.0775235, Final residual = 0.00234185, No Iterations 5
smoothSolver:  Solving for Conc03, Initial residual = 0.0776874, Final residual = 0.00236466, No Iterations 5
smoothSolver:  Solving for Conc045, Initial residual = 0.0780938, Final residual = 0.00240938, No Iterations 5
ExecutionTime = 1.68 s  ClockTime = 2 s

Time = 0.2

smoothSolver:  Solving for Ux, Initial residual = 0.283747, Final residual = 0.023729, No Iterations 2
smoothSolver:  Solving for Uy, Initial residual = 0.431627, Final residual = 0.0290938, No Iterations 2
smoothSolver:  Solving for Uz, Initial residual = 0.411464, Final residual = 0.0316605, No Iterations 2
GAMG:  Solving for p, Initial residual = 0.137449, Final residual = 0.00648127, No Iterations 2
time step continuity errors : sum local = 0.0014882, global = -4.24315e-06, cumulative = -7.59732e-05
depth: 1.54
smoothSolver:  Solving for epsilon, Initial residual = 0.580464, Final residual = 0.00523579, No Iterations 1
smoothSolver:  Solving for k, Initial residual = 0.273905, Final residual = 0.00332796, No Iterations 1
smoothSolver:  Solving for Conc01, Initial residual = 0.0555541, Final residual = 0.00168855, No Iterations 5
smoothSolver:  Solving for Conc02, Initial residual = 0.0557282, Final residual = 0.00170995, No Iterations 5
smoothSolver:  Solving for Conc03, Initial residual = 0.0558844, Final residual = 0.00172837, No Iterations 5
smoothSolver:  Solving for Conc045, Initial residual = 0.0562196, Final residual = 0.00176382, No Iterations 5
ExecutionTime = 2.46 s  ClockTime = 3 s

Time = 0.25

smoothSolver:  Solving for Ux, Initial residual = 0.194021, Final residual = 0.0163046, No Iterations 2
smoothSolver:  Solving for Uy, Initial residual = 0.367056, Final residual = 0.0287448, No Iterations 2
smoothSolver:  Solving for Uz, Initial residual = 0.35559, Final residual = 0.0292986, No Iterations 2
GAMG:  Solving for p, Initial residual = 0.133549, Final residual = 0.0126857, No Iterations 1
time step continuity errors : sum local = 0.00220471, global = -8.97447e-05, cumulative = -0.000165718
depth: 1.54
smoothSolver:  Solving for epsilon, Initial residual = 0.555745, Final residual = 0.00501509, No Iterations 1
smoothSolver:  Solving for k, Initial residual = 0.20272, Final residual = 0.00234325, No Iterations 1
smoothSolver:  Solving for Conc01, Initial residual = 0.0440448, Final residual = 0.0013292, No Iterations 5
smoothSolver:  Solving for Conc02, Initial residual = 0.0442165, Final residual = 0.00134809, No Iterations 5
smoothSolver:  Solving for Conc03, Initial residual = 0.04437, Final residual = 0.00136401, No Iterations 5
smoothSolver:  Solving for Conc045, Initial residual = 0.0446884, Final residual = 0.00139404, No Iterations 5
ExecutionTime = 3.36 s  ClockTime = 4 s

Time = 0.3

smoothSolver:  Solving for Ux, Initial residual = 0.143086, Final residual = 0.0137662, No Iterations 2
smoothSolver:  Solving for Uy, Initial residual = 0.320056, Final residual = 0.0264067, No Iterations 2
smoothSolver:  Solving for Uz, Initial residual = 0.29789, Final residual = 0.0275273, No Iterations 2
GAMG:  Solving for p, Initial residual = 0.117339, Final residual = 0.00579685, No Iterations 2
time step continuity errors : sum local = 0.00102882, global = -9.36381e-06, cumulative = -0.000175082
depth: 1.54
smoothSolver:  Solving for epsilon, Initial residual = 0.541447, Final residual = 0.00540389, No Iterations 1
smoothSolver:  Solving for k, Initial residual = 0.157091, Final residual = 0.00191628, No Iterations 1
smoothSolver:  Solving for Conc01, Initial residual = 0.0367359, Final residual = 0.00110643, No Iterations 5
smoothSolver:  Solving for Conc02, Initial residual = 0.0369055, Final residual = 0.00112375, No Iterations 5
smoothSolver:  Solving for Conc03, Initial residual = 0.0370568, Final residual = 0.00113811, No Iterations 5
smoothSolver:  Solving for Conc045, Initial residual = 0.0373674, Final residual = 0.0011647, No Iterations 5
ExecutionTime = 4.18 s  ClockTime = 4 s

Time = 0.35

smoothSolver:  Solving for Ux, Initial residual = 0.121642, Final residual = 0.0110163, No Iterations 2
smoothSolver:  Solving for Uy, Initial residual = 0.30265, Final residual = 0.0264621, No Iterations 2
smoothSolver:  Solving for Uz, Initial residual = 0.283321, Final residual = 0.0261457, No Iterations 2
GAMG:  Solving for p, Initial residual = 0.142193, Final residual = 0.00440608, No Iterations 2
time step continuity errors : sum local = 0.000532799, global = 1.1209e-05, cumulative = -0.000163873
depth: 1.54
smoothSolver:  Solving for epsilon, Initial residual = 0.527084, Final residual = 0.0055011, No Iterations 1
smoothSolver:  Solving for k, Initial residual = 0.126164, Final residual = 0.00155254, No Iterations 1
smoothSolver:  Solving for Conc01, Initial residual = 0.0315828, Final residual = 0.000951209, No Iterations 5
smoothSolver:  Solving for Conc02, Initial residual = 0.0317508, Final residual = 0.000967385, No Iterations 5
smoothSolver:  Solving for Conc03, Initial residual = 0.0319004, Final residual = 0.00098063, No Iterations 5
smoothSolver:  Solving for Conc045, Initial residual = 0.0322061, Final residual = 0.00100478, No Iterations 5
ExecutionTime = 5.27 s  ClockTime = 5 s

Time = 0.4

smoothSolver:  Solving for Ux, Initial residual = 0.102343, Final residual = 0.0100748, No Iterations 2
smoothSolver:  Solving for Uy, Initial residual = 0.264691, Final residual = 0.0245329, No Iterations 2
smoothSolver:  Solving for Uz, Initial residual = 0.253599, Final residual = 0.024678, No Iterations 2
GAMG:  Solving for p, Initial residual = 0.134043, Final residual = 0.00396912, No Iterations 2
time step continuity errors : sum local = 0.000454747, global = -4.21727e-06, cumulative = -0.00016809
depth: 1.54
smoothSolver:  Solving for epsilon, Initial residual = 0.501242, Final residual = 0.0053376, No Iterations 1
smoothSolver:  Solving for k, Initial residual = 0.10383, Final residual = 0.00126791, No Iterations 1
smoothSolver:  Solving for Conc01, Initial residual = 0.0277471, Final residual = 0.000837826, No Iterations 5
smoothSolver:  Solving for Conc02, Initial residual = 0.0279134, Final residual = 0.000853114, No Iterations 5
smoothSolver:  Solving for Conc03, Initial residual = 0.0280613, Final residual = 0.000865513, No Iterations 5
smoothSolver:  Solving for Conc045, Initial residual = 0.0283627, Final residual = 0.000887822, No Iterations 5
ExecutionTime = 6.53 s  ClockTime = 7 s

Time = 0.45

smoothSolver:  Solving for Ux, Initial residual = 0.0892167, Final residual = 0.00340347, No Iterations 3
smoothSolver:  Solving for Uy, Initial residual = 0.235949, Final residual = 0.0230242, No Iterations 2
smoothSolver:  Solving for Uz, Initial residual = 0.226691, Final residual = 0.00881495, No Iterations 3
GAMG:  Solving for p, Initial residual = 0.140093, Final residual = 0.00350961, No Iterations 2
time step continuity errors : sum local = 0.000350809, global = -5.44686e-06, cumulative = -0.000173537
depth: 1.54
smoothSolver:  Solving for epsilon, Initial residual = 0.455895, Final residual = 0.00490468, No Iterations 1
smoothSolver:  Solving for k, Initial residual = 0.0874062, Final residual = 0.00105537, No Iterations 1
smoothSolver:  Solving for Conc01, Initial residual = 0.024735, Final residual = 0.000747617, No Iterations 5
smoothSolver:  Solving for Conc02, Initial residual = 0.0248996, Final residual = 0.000762138, No Iterations 5
smoothSolver:  Solving for Conc03, Initial residual = 0.0250459, Final residual = 0.000773818, No Iterations 5
smoothSolver:  Solving for Conc045, Initial residual = 0.0253431, Final residual = 0.000794579, No Iterations 5
ExecutionTime = 7.7 s  ClockTime = 8 s

Time = 0.5

smoothSolver:  Solving for Ux, Initial residual = 0.0786555, Final residual = 0.00316838, No Iterations 3
smoothSolver:  Solving for Uy, Initial residual = 0.218494, Final residual = 0.0215335, No Iterations 2
smoothSolver:  Solving for Uz, Initial residual = 0.205724, Final residual = 0.00809702, No Iterations 3
GAMG:  Solving for p, Initial residual = 0.129917, Final residual = 0.00305481, No Iterations 2
time step continuity errors : sum local = 0.000305727, global = 2.03947e-06, cumulative = -0.000171497
depth: 1.54
smoothSolver:  Solving for epsilon, Initial residual = 0.395838, Final residual = 0.00427359, No Iterations 1
smoothSolver:  Solving for k, Initial residual = 0.0749037, Final residual = 0.00089406, No Iterations 1
smoothSolver:  Solving for Conc01, Initial residual = 0.0223174, Final residual = 0.000674933, No Iterations 5
smoothSolver:  Solving for Conc02, Initial residual = 0.0224804, Final residual = 0.000688787, No Iterations 5
smoothSolver:  Solving for Conc03, Initial residual = 0.0226251, Final residual = 0.000699845, No Iterations 5
smoothSolver:  Solving for Conc045, Initial residual = 0.0229184, Final residual = 0.000719289, No Iterations 5
ExecutionTime = 8.65 s  ClockTime = 9 s

Time = 0.55

smoothSolver:  Solving for Ux, Initial residual = 0.0714226, Final residual = 0.00299323, No Iterations 3
smoothSolver:  Solving for Uy, Initial residual = 0.206646, Final residual = 0.020406, No Iterations 2
smoothSolver:  Solving for Uz, Initial residual = 0.192292, Final residual = 0.00751049, No Iterations 3
GAMG:  Solving for p, Initial residual = 0.126492, Final residual = 0.00308033, No Iterations 2
time step continuity errors : sum local = 0.000299997, global = 6.05169e-06, cumulative = -0.000165446
depth: 1.54
smoothSolver:  Solving for epsilon, Initial residual = 0.334067, Final residual = 0.00362504, No Iterations 1
smoothSolver:  Solving for k, Initial residual = 0.0652068, Final residual = 0.000770926, No Iterations 1
smoothSolver:  Solving for Conc01, Initial residual = 0.020328, Final residual = 0.000614413, No Iterations 5
smoothSolver:  Solving for Conc02, Initial residual = 0.0204894, Final residual = 0.000627665, No Iterations 5
smoothSolver:  Solving for Conc03, Initial residual = 0.0206324, Final residual = 0.000638169, No Iterations 5
smoothSolver:  Solving for Conc045, Initial residual = 0.020922, Final residual = 0.000656456, No Iterations 5
ExecutionTime = 9.78 s  ClockTime = 10 s

Time = 0.6

smoothSolver:  Solving for Ux, Initial residual = 0.066399, Final residual = 0.00285976, No Iterations 3
smoothSolver:  Solving for Uy, Initial residual = 0.197553, Final residual = 0.0197148, No Iterations 2
smoothSolver:  Solving for Uz, Initial residual = 0.183473, Final residual = 0.0072089, No Iterations 3
GAMG:  Solving for p, Initial residual = 0.124276, Final residual = 0.00300903, No Iterations 2
time step continuity errors : sum local = 0.00028546, global = 1.36832e-06, cumulative = -0.000164077
depth: 1.54
smoothSolver:  Solving for epsilon, Initial residual = 0.279506, Final residual = 0.00305143, No Iterations 1
smoothSolver:  Solving for k, Initial residual = 0.0575388, Final residual = 0.000675026, No Iterations 1
smoothSolver:  Solving for Conc01, Initial residual = 0.0186589, Final residual = 0.000562927, No Iterations 5
smoothSolver:  Solving for Conc02, Initial residual = 0.0188186, Final residual = 0.000575626, No Iterations 5
smoothSolver:  Solving for Conc03, Initial residual = 0.0189601, Final residual = 0.000585628, No Iterations 5
smoothSolver:  Solving for Conc045, Initial residual = 0.0192459, Final residual = 0.000602876, No Iterations 5
ExecutionTime = 11.08 s  ClockTime = 11 s

Time = 0.65

smoothSolver:  Solving for Ux, Initial residual = 0.0633681, Final residual = 0.00275787, No Iterations 3
smoothSolver:  Solving for Uy, Initial residual = 0.192191, Final residual = 0.00715057, No Iterations 3
smoothSolver:  Solving for Uz, Initial residual = 0.177064, Final residual = 0.00707761, No Iterations 3
GAMG:  Solving for p, Initial residual = 0.12348, Final residual = 0.00285396, No Iterations 2
time step continuity errors : sum local = 0.000262017, global = -7.68566e-06, cumulative = -0.000171763
depth: 1.54
smoothSolver:  Solving for epsilon, Initial residual = 0.23253, Final residual = 0.00255235, No Iterations 1
smoothSolver:  Solving for k, Initial residual = 0.0513062, Final residual = 0.000597183, No Iterations 1
smoothSolver:  Solving for Conc01, Initial residual = 0.0172369, Final residual = 0.000518499, No Iterations 5
smoothSolver:  Solving for Conc02, Initial residual = 0.0173951, Final residual = 0.000530685, No Iterations 5
smoothSolver:  Solving for Conc03, Initial residual = 0.0175349, Final residual = 0.000540222, No Iterations 5
smoothSolver:  Solving for Conc045, Initial residual = 0.017817, Final residual = 0.000556529, No Iterations 5
ExecutionTime = 12.44 s  ClockTime = 13 s

Time = 0.7

smoothSolver:  Solving for Ux, Initial residual = 0.0612601, Final residual = 0.00270442, No Iterations 3
smoothSolver:  Solving for Uy, Initial residual = 0.187842, Final residual = 0.00691603, No Iterations 3
smoothSolver:  Solving for Uz, Initial residual = 0.172576, Final residual = 0.00705392, No Iterations 3
GAMG:  Solving for p, Initial residual = 0.1224, Final residual = 0.00273278, No Iterations 2
time step continuity errors : sum local = 0.00024205, global = -1.56609e-05, cumulative = -0.000187424
depth: 1.54
smoothSolver:  Solving for epsilon, Initial residual = 0.192564, Final residual = 0.00213648, No Iterations 1
smoothSolver:  Solving for k, Initial residual = 0.0462132, Final residual = 0.000536176, No Iterations 1
smoothSolver:  Solving for Conc01, Initial residual = 0.0160126, Final residual = 0.000480059, No Iterations 5
smoothSolver:  Solving for Conc02, Initial residual = 0.0161691, Final residual = 0.000491766, No Iterations 5
smoothSolver:  Solving for Conc03, Initial residual = 0.0163074, Final residual = 0.000500878, No Iterations 5
smoothSolver:  Solving for Conc045, Initial residual = 0.0165859, Final residual = 0.00051633, No Iterations 5
ExecutionTime = 13.85 s  ClockTime = 14 s

Time = 0.75

smoothSolver:  Solving for Ux, Initial residual = 0.059492, Final residual = 0.00265182, No Iterations 3
smoothSolver:  Solving for Uy, Initial residual = 0.186756, Final residual = 0.0185955, No Iterations 2
smoothSolver:  Solving for Uz, Initial residual = 0.169061, Final residual = 0.00692188, No Iterations 3
GAMG:  Solving for p, Initial residual = 0.122297, Final residual = 0.00354851, No Iterations 2
time step continuity errors : sum local = 0.000300507, global = -2.40029e-06, cumulative = -0.000189824
depth: 1.54
smoothSolver:  Solving for epsilon, Initial residual = 0.16009, Final residual = 0.00181374, No Iterations 1
smoothSolver:  Solving for k, Initial residual = 0.0420138, Final residual = 0.000491043, No Iterations 1
smoothSolver:  Solving for Conc01, Initial residual = 0.0149593, Final residual = 0.000447921, No Iterations 5
smoothSolver:  Solving for Conc02, Initial residual = 0.0151143, Final residual = 0.000459211, No Iterations 5
smoothSolver:  Solving for Conc03, Initial residual = 0.015251, Final residual = 0.00046795, No Iterations 5
smoothSolver:  Solving for Conc045, Initial residual = 0.015526, Final residual = 0.000482653, No Iterations 5
ExecutionTime = 15.23 s  ClockTime = 15 s

Time = 0.8

smoothSolver:  Solving for Ux, Initial residual = 0.0581152, Final residual = 0.00258007, No Iterations 3
smoothSolver:  Solving for Uy, Initial residual = 0.188813, Final residual = 0.0069083, No Iterations 3
smoothSolver:  Solving for Uz, Initial residual = 0.166668, Final residual = 0.0067592, No Iterations 3
GAMG:  Solving for p, Initial residual = 0.132915, Final residual = 0.00289294, No Iterations 2
time step continuity errors : sum local = 0.000213196, global = 1.37513e-05, cumulative = -0.000176073
depth: 1.54
smoothSolver:  Solving for epsilon, Initial residual = 0.1337, Final residual = 0.0015327, No Iterations 1
smoothSolver:  Solving for k, Initial residual = 0.0384681, Final residual = 0.000451668, No Iterations 1
smoothSolver:  Solving for Conc01, Initial residual = 0.0140399, Final residual = 0.000420291, No Iterations 5
smoothSolver:  Solving for Conc02, Initial residual = 0.0141934, Final residual = 0.000431208, No Iterations 5
smoothSolver:  Solving for Conc03, Initial residual = 0.0143287, Final residual = 0.000439615, No Iterations 5
smoothSolver:  Solving for Conc045, Initial residual = 0.0146003, Final residual = 0.000453649, No Iterations 5
ExecutionTime = 16.44 s  ClockTime = 17 s

Time = 0.85

smoothSolver:  Solving for Ux, Initial residual = 0.0568411, Final residual = 0.00255754, No Iterations 3
smoothSolver:  Solving for Uy, Initial residual = 0.187542, Final residual = 0.00683139, No Iterations 3
smoothSolver:  Solving for Uz, Initial residual = 0.164094, Final residual = 0.00667517, No Iterations 3
GAMG:  Solving for p, Initial residual = 0.132989, Final residual = 0.00308964, No Iterations 2
time step continuity errors : sum local = 0.000215077, global = 2.16667e-05, cumulative = -0.000154406
depth: 1.54
smoothSolver:  Solving for epsilon, Initial residual = 0.111684, Final residual = 0.00129781, No Iterations 1
smoothSolver:  Solving for k, Initial residual = 0.0354108, Final residual = 0.000419499, No Iterations 1
smoothSolver:  Solving for Conc01, Initial residual = 0.0132332, Final residual = 0.000396585, No Iterations 5
smoothSolver:  Solving for Conc02, Initial residual = 0.0133853, Final residual = 0.000407171, No Iterations 5
smoothSolver:  Solving for Conc03, Initial residual = 0.0135192, Final residual = 0.000415279, No Iterations 5
smoothSolver:  Solving for Conc045, Initial residual = 0.0137875, Final residual = 0.000428714, No Iterations 5
ExecutionTime = 17.34 s  ClockTime = 18 s

Time = 0.9

smoothSolver:  Solving for Ux, Initial residual = 0.0556396, Final residual = 0.00250175, No Iterations 3
smoothSolver:  Solving for Uy, Initial residual = 0.186251, Final residual = 0.0185589, No Iterations 2
smoothSolver:  Solving for Uz, Initial residual = 0.161753, Final residual = 0.00669477, No Iterations 3
GAMG:  Solving for p, Initial residual = 0.133987, Final residual = 0.00457035, No Iterations 2
time step continuity errors : sum local = 0.000301221, global = 1.17418e-06, cumulative = -0.000153232
depth: 1.54
smoothSolver:  Solving for epsilon, Initial residual = 0.0935437, Final residual = 0.00109465, No Iterations 1
smoothSolver:  Solving for k, Initial residual = 0.0327382, Final residual = 0.000389146, No Iterations 1
smoothSolver:  Solving for Conc01, Initial residual = 0.012519, Final residual = 0.000375923, No Iterations 5
smoothSolver:  Solving for Conc02, Initial residual = 0.0126696, Final residual = 0.000386208, No Iterations 5
smoothSolver:  Solving for Conc03, Initial residual = 0.0128021, Final residual = 0.000394048, No Iterations 5
smoothSolver:  Solving for Conc045, Initial residual = 0.0130673, Final residual = 0.000406943, No Iterations 5
ExecutionTime = 17.99 s  ClockTime = 18 s

Time = 0.95

smoothSolver:  Solving for Ux, Initial residual = 0.0540168, Final residual = 0.00243344, No Iterations 3
smoothSolver:  Solving for Uy, Initial residual = 0.186087, Final residual = 0.00673007, No Iterations 3
smoothSolver:  Solving for Uz, Initial residual = 0.157767, Final residual = 0.00664242, No Iterations 3
GAMG:  Solving for p, Initial residual = 0.12251, Final residual = 0.00302007, No Iterations 2
time step continuity errors : sum local = 0.000212638, global = -1.15812e-05, cumulative = -0.000164813
depth: 1.54
smoothSolver:  Solving for epsilon, Initial residual = 0.0792362, Final residual = 0.00094901, No Iterations 1
smoothSolver:  Solving for k, Initial residual = 0.0304652, Final residual = 0.000366865, No Iterations 1
smoothSolver:  Solving for Conc01, Initial residual = 0.0118771, Final residual = 0.000357206, No Iterations 5
smoothSolver:  Solving for Conc02, Initial residual = 0.0120264, Final residual = 0.000367206, No Iterations 5
smoothSolver:  Solving for Conc03, Initial residual = 0.0121576, Final residual = 0.000374792, No Iterations 5
smoothSolver:  Solving for Conc045, Initial residual = 0.0124196, Final residual = 0.000387181, No Iterations 5
ExecutionTime = 18.55 s  ClockTime = 19 s

Time = 1

smoothSolver:  Solving for Ux, Initial residual = 0.0519575, Final residual = 0.00236747, No Iterations 3
smoothSolver:  Solving for Uy, Initial residual = 0.184249, Final residual = 0.00669196, No Iterations 3
smoothSolver:  Solving for Uz, Initial residual = 0.153821, Final residual = 0.00658024, No Iterations 3
GAMG:  Solving for p, Initial residual = 0.12265, Final residual = 0.00343581, No Iterations 2
time step continuity errors : sum local = 0.000232602, global = -7.54036e-06, cumulative = -0.000172354
depth: 1.54
smoothSolver:  Solving for epsilon, Initial residual = 0.0678568, Final residual = 0.000839225, No Iterations 1
smoothSolver:  Solving for k, Initial residual = 0.0284969, Final residual = 0.000350167, No Iterations 1
smoothSolver:  Solving for Conc01, Initial residual = 0.0112954, Final residual = 0.000339921, No Iterations 5
smoothSolver:  Solving for Conc02, Initial residual = 0.0114434, Final residual = 0.000349643, No Iterations 5
smoothSolver:  Solving for Conc03, Initial residual = 0.0115733, Final residual = 0.000356984, No Iterations 5
smoothSolver:  Solving for Conc045, Initial residual = 0.0118323, Final residual = 0.000368889, No Iterations 5
ExecutionTime = 19.11 s  ClockTime = 19 s

Time = 1.05

smoothSolver:  Solving for Ux, Initial residual = 0.0503215, Final residual = 0.00231051, No Iterations 3
smoothSolver:  Solving for Uy, Initial residual = 0.185157, Final residual = 0.00686972, No Iterations 3
smoothSolver:  Solving for Uz, Initial residual = 0.151336, Final residual = 0.00661691, No Iterations 3
GAMG:  Solving for p, Initial residual = 0.130608, Final residual = 0.00320745, No Iterations 2
time step continuity errors : sum local = 0.000194626, global = -2.5177e-06, cumulative = -0.000174871
depth: 1.54
smoothSolver:  Solving for epsilon, Initial residual = 0.0588843, Final residual = 0.000752982, No Iterations 1
smoothSolver:  Solving for k, Initial residual = 0.0268159, Final residual = 0.000336791, No Iterations 1
smoothSolver:  Solving for Conc01, Initial residual = 0.0107677, Final residual = 0.000324136, No Iterations 5
smoothSolver:  Solving for Conc02, Initial residual = 0.0109144, Final residual = 0.000333589, No Iterations 5
smoothSolver:  Solving for Conc03, Initial residual = 0.011043, Final residual = 0.000340696, No Iterations 5
smoothSolver:  Solving for Conc045, Initial residual = 0.011299, Final residual = 0.000352144, No Iterations 5
ExecutionTime = 19.66 s  ClockTime = 20 s

Time = 1.1

smoothSolver:  Solving for Ux, Initial residual = 0.0489294, Final residual = 0.0022835, No Iterations 3
smoothSolver:  Solving for Uy, Initial residual = 0.184805, Final residual = 0.00702963, No Iterations 3
smoothSolver:  Solving for Uz, Initial residual = 0.148241, Final residual = 0.00655877, No Iterations 3
GAMG:  Solving for p, Initial residual = 0.131323, Final residual = 0.00323614, No Iterations 2
time step continuity errors : sum local = 0.000186878, global = -4.66234e-06, cumulative = -0.000179534
depth: 1.54
smoothSolver:  Solving for epsilon, Initial residual = 0.0515852, Final residual = 0.000683973, No Iterations 1
smoothSolver:  Solving for k, Initial residual = 0.025337, Final residual = 0.000325981, No Iterations 1
smoothSolver:  Solving for Conc01, Initial residual = 0.0102863, Final residual = 0.000309604, No Iterations 5
smoothSolver:  Solving for Conc02, Initial residual = 0.0104317, Final residual = 0.000318799, No Iterations 5
smoothSolver:  Solving for Conc03, Initial residual = 0.010559, Final residual = 0.000325682, No Iterations 5
smoothSolver:  Solving for Conc045, Initial residual = 0.0108121, Final residual = 0.000336696, No Iterations 5
ExecutionTime = 20.23 s  ClockTime = 20 s

Time = 1.15

smoothSolver:  Solving for Ux, Initial residual = 0.0476364, Final residual = 0.00221101, No Iterations 3
smoothSolver:  Solving for Uy, Initial residual = 0.184388, Final residual = 0.00718455, No Iterations 3
smoothSolver:  Solving for Uz, Initial residual = 0.146148, Final residual = 0.00651791, No Iterations 3
GAMG:  Solving for p, Initial residual = 0.1314, Final residual = 0.00320185, No Iterations 2
time step continuity errors : sum local = 0.000176399, global = -6.44102e-06, cumulative = -0.000185975
depth: 1.54
smoothSolver:  Solving for epsilon, Initial residual = 0.0456517, Final residual = 0.000629411, No Iterations 1
smoothSolver:  Solving for k, Initial residual = 0.0240576, Final residual = 0.000317834, No Iterations 1
smoothSolver:  Solving for Conc01, Initial residual = 0.00984572, Final residual = 0.000296225, No Iterations 5
smoothSolver:  Solving for Conc02, Initial residual = 0.00998986, Final residual = 0.00030517, No Iterations 5
smoothSolver:  Solving for Conc03, Initial residual = 0.0101159, Final residual = 0.000311839, No Iterations 5
smoothSolver:  Solving for Conc045, Initial residual = 0.0103662, Final residual = 0.00032244, No Iterations 5
ExecutionTime = 20.77 s  ClockTime = 21 s

Time = 1.2

smoothSolver:  Solving for Ux, Initial residual = 0.0465456, Final residual = 0.00216509, No Iterations 3
smoothSolver:  Solving for Uy, Initial residual = 0.183077, Final residual = 0.00723579, No Iterations 3
smoothSolver:  Solving for Uz, Initial residual = 0.143502, Final residual = 0.00642342, No Iterations 3
GAMG:  Solving for p, Initial residual = 0.131464, Final residual = 0.00346713, No Iterations 2
time step continuity errors : sum local = 0.00018213, global = -4.37282e-06, cumulative = -0.000190347
depth: 1.54
smoothSolver:  Solving for epsilon, Initial residual = 0.0408245, Final residual = 0.000585583, No Iterations 1
smoothSolver:  Solving for k, Initial residual = 0.0229459, Final residual = 0.000313228, No Iterations 1
smoothSolver:  Solving for Conc01, Initial residual = 0.00944261, Final residual = 0.000284061, No Iterations 5
smoothSolver:  Solving for Conc02, Initial residual = 0.0095855, Final residual = 0.000292769, No Iterations 5
smoothSolver:  Solving for Conc03, Initial residual = 0.00971031, Final residual = 0.000299236, No Iterations 5
smoothSolver:  Solving for Conc045, Initial residual = 0.00995778, Final residual = 0.000309451, No Iterations 5
ExecutionTime = 21.32 s  ClockTime = 22 s

Time = 1.25

smoothSolver:  Solving for Ux, Initial residual = 0.0457616, Final residual = 0.00216721, No Iterations 3
smoothSolver:  Solving for Uy, Initial residual = 0.182175, Final residual = 0.0072753, No Iterations 3
smoothSolver:  Solving for Uz, Initial residual = 0.141017, Final residual = 0.00634701, No Iterations 3
GAMG:  Solving for p, Initial residual = 0.138229, Final residual = 0.00352602, No Iterations 2
time step continuity errors : sum local = 0.000166165, global = 2.85583e-08, cumulative = -0.000190319
depth: 1.54
smoothSolver:  Solving for epsilon, Initial residual = 0.0368065, Final residual = 0.000547883, No Iterations 1
smoothSolver:  Solving for k, Initial residual = 0.0219628, Final residual = 0.000309195, No Iterations 1
smoothSolver:  Solving for Conc01, Initial residual = 0.00907218, Final residual = 0.000272927, No Iterations 5
smoothSolver:  Solving for Conc02, Initial residual = 0.00921387, Final residual = 0.00028141, No Iterations 5
smoothSolver:  Solving for Conc03, Initial residual = 0.00933748, Final residual = 0.000287687, No Iterations 5
smoothSolver:  Solving for Conc045, Initial residual = 0.0095822, Final residual = 0.000297536, No Iterations 5
ExecutionTime = 21.85 s  ClockTime = 22 s

Time = 1.3

smoothSolver:  Solving for Ux, Initial residual = 0.045109, Final residual = 0.00216401, No Iterations 3
smoothSolver:  Solving for Uy, Initial residual = 0.18056, Final residual = 0.00725953, No Iterations 3
smoothSolver:  Solving for Uz, Initial residual = 0.138282, Final residual = 0.00621966, No Iterations 3
GAMG:  Solving for p, Initial residual = 0.138921, Final residual = 0.00357744, No Iterations 2
time step continuity errors : sum local = 0.000158856, global = 1.85515e-06, cumulative = -0.000188464
depth: 1.54
smoothSolver:  Solving for epsilon, Initial residual = 0.0335308, Final residual = 0.000522414, No Iterations 1
smoothSolver:  Solving for k, Initial residual = 0.0210918, Final residual = 0.000305423, No Iterations 1
smoothSolver:  Solving for Conc01, Initial residual = 0.0087313, Final residual = 0.000262785, No Iterations 5
smoothSolver:  Solving for Conc02, Initial residual = 0.00887181, Final residual = 0.000271052, No Iterations 5
smoothSolver:  Solving for Conc03, Initial residual = 0.00899425, Final residual = 0.000277148, No Iterations 5
smoothSolver:  Solving for Conc045, Initial residual = 0.00923629, Final residual = 0.000286654, No Iterations 5
ExecutionTime = 22.37 s  ClockTime = 23 s

Time = 1.35

smoothSolver:  Solving for Ux, Initial residual = 0.0443719, Final residual = 0.00211734, No Iterations 3
smoothSolver:  Solving for Uy, Initial residual = 0.178401, Final residual = 0.00728291, No Iterations 3
smoothSolver:  Solving for Uz, Initial residual = 0.136316, Final residual = 0.00615623, No Iterations 3
GAMG:  Solving for p, Initial residual = 0.139435, Final residual = 0.00359556, No Iterations 2
time step continuity errors : sum local = 0.000149916, global = 3.85199e-06, cumulative = -0.000184612
depth: 1.54
smoothSolver:  Solving for epsilon, Initial residual = 0.0309117, Final residual = 0.000493971, No Iterations 1
smoothSolver:  Solving for k, Initial residual = 0.0203524, Final residual = 0.000302082, No Iterations 1
smoothSolver:  Solving for Conc01, Initial residual = 0.00841693, Final residual = 0.000253542, No Iterations 5
smoothSolver:  Solving for Conc02, Initial residual = 0.00855629, Final residual = 0.000261604, No Iterations 5
smoothSolver:  Solving for Conc03, Initial residual = 0.00867756, Final residual = 0.000267528, No Iterations 5
smoothSolver:  Solving for Conc045, Initial residual = 0.00891698, Final residual = 0.000276711, No Iterations 5
ExecutionTime = 22.85 s  ClockTime = 23 s

Time = 1.4

smoothSolver:  Solving for Ux, Initial residual = 0.0435623, Final residual = 0.00209051, No Iterations 3
smoothSolver:  Solving for Uy, Initial residual = 0.17591, Final residual = 0.00728228, No Iterations 3
smoothSolver:  Solving for Uz, Initial residual = 0.134353, Final residual = 0.00609318, No Iterations 3
GAMG:  Solving for p, Initial residual = 0.138935, Final residual = 0.00373492, No Iterations 2
time step continuity errors : sum local = 0.000147116, global = 6.58209e-06, cumulative = -0.00017803
depth: 1.54
smoothSolver:  Solving for epsilon, Initial residual = 0.0286831, Final residual = 0.00047745, No Iterations 1
smoothSolver:  Solving for k, Initial residual = 0.0196988, Final residual = 0.000301357, No Iterations 1
smoothSolver:  Solving for Conc01, Initial residual = 0.00812492, Final residual = 0.000244947, No Iterations 5
smoothSolver:  Solving for Conc02, Initial residual = 0.00826315, Final residual = 0.000252807, No Iterations 5
smoothSolver:  Solving for Conc03, Initial residual = 0.00838332, Final residual = 0.000258565, No Iterations 5
smoothSolver:  Solving for Conc045, Initial residual = 0.00862017, Final residual = 0.000267438, No Iterations 5
ExecutionTime = 23.33 s  ClockTime = 24 s

Time = 1.45

smoothSolver:  Solving for Ux, Initial residual = 0.0429488, Final residual = 0.00208211, No Iterations 3
smoothSolver:  Solving for Uy, Initial residual = 0.173206, Final residual = 0.00729481, No Iterations 3
smoothSolver:  Solving for Uz, Initial residual = 0.132069, Final residual = 0.00605695, No Iterations 3
GAMG:  Solving for p, Initial residual = 0.136335, Final residual = 0.00350435, No Iterations 2
time step continuity errors : sum local = 0.000133241, global = 1.03466e-05, cumulative = -0.000167683
depth: 1.54
smoothSolver:  Solving for epsilon, Initial residual = 0.0268885, Final residual = 0.000462263, No Iterations 1
smoothSolver:  Solving for k, Initial residual = 0.0191423, Final residual = 0.000301906, No Iterations 1
smoothSolver:  Solving for Conc01, Initial residual = 0.00785248, Final residual = 0.000236879, No Iterations 5
smoothSolver:  Solving for Conc02, Initial residual = 0.0079896, Final residual = 0.000244534, No Iterations 5
smoothSolver:  Solving for Conc03, Initial residual = 0.00810865, Final residual = 0.000250129, No Iterations 5
smoothSolver:  Solving for Conc045, Initial residual = 0.00834297, Final residual = 0.000258702, No Iterations 5
ExecutionTime = 23.8 s  ClockTime = 24 s

Time = 1.5

smoothSolver:  Solving for Ux, Initial residual = 0.0423354, Final residual = 0.00208269, No Iterations 3
smoothSolver:  Solving for Uy, Initial residual = 0.170594, Final residual = 0.00730956, No Iterations 3
smoothSolver:  Solving for Uz, Initial residual = 0.129957, Final residual = 0.00608401, No Iterations 3
GAMG:  Solving for p, Initial residual = 0.135218, Final residual = 0.00400724, No Iterations 2
time step continuity errors : sum local = 0.000146312, global = 6.12487e-06, cumulative = -0.000161558
depth: 1.54
smoothSolver:  Solving for epsilon, Initial residual = 0.0253036, Final residual = 0.000456807, No Iterations 1
smoothSolver:  Solving for k, Initial residual = 0.0186141, Final residual = 0.000304289, No Iterations 1
smoothSolver:  Solving for Conc01, Initial residual = 0.00759668, Final residual = 0.000229165, No Iterations 5
smoothSolver:  Solving for Conc02, Initial residual = 0.00773271, Final residual = 0.000236611, No Iterations 5
smoothSolver:  Solving for Conc03, Initial residual = 0.00785066, Final residual = 0.000242042, No Iterations 5
smoothSolver:  Solving for Conc045, Initial residual = 0.0080825, Final residual = 0.00025032, No Iterations 5
ExecutionTime = 24.28 s  ClockTime = 25 s

Time = 1.55

smoothSolver:  Solving for Ux, Initial residual = 0.0420335, Final residual = 0.00208726, No Iterations 3
smoothSolver:  Solving for Uy, Initial residual = 0.167108, Final residual = 0.00729141, No Iterations 3
smoothSolver:  Solving for Uz, Initial residual = 0.129309, Final residual = 0.00617922, No Iterations 3
GAMG:  Solving for p, Initial residual = 0.129306, Final residual = 0.00345736, No Iterations 2
time step continuity errors : sum local = 0.000126719, global = 3.36372e-06, cumulative = -0.000158194
depth: 1.54
smoothSolver:  Solving for epsilon, Initial residual = 0.0238722, Final residual = 0.000448912, No Iterations 1
smoothSolver:  Solving for k, Initial residual = 0.0181196, Final residual = 0.000304439, No Iterations 1
smoothSolver:  Solving for Conc01, Initial residual = 0.00735698, Final residual = 0.000221869, No Iterations 5
smoothSolver:  Solving for Conc02, Initial residual = 0.00749192, Final residual = 0.000229103, No Iterations 5
smoothSolver:  Solving for Conc03, Initial residual = 0.00760878, Final residual = 0.000234373, No Iterations 5
smoothSolver:  Solving for Conc045, Initial residual = 0.00783814, Final residual = 0.000242362, No Iterations 5
ExecutionTime = 24.74 s  ClockTime = 25 s

Time = 1.6

smoothSolver:  Solving for Ux, Initial residual = 0.0418985, Final residual = 0.00210241, No Iterations 3
smoothSolver:  Solving for Uy, Initial residual = 0.163275, Final residual = 0.00724107, No Iterations 3
smoothSolver:  Solving for Uz, Initial residual = 0.129503, Final residual = 0.00631901, No Iterations 3
GAMG:  Solving for p, Initial residual = 0.128569, Final residual = 0.00352872, No Iterations 2
time step continuity errors : sum local = 0.00012523, global = 1.20454e-06, cumulative = -0.00015699
depth: 1.54
smoothSolver:  Solving for epsilon, Initial residual = 0.0225489, Final residual = 0.000446108, No Iterations 1
smoothSolver:  Solving for k, Initial residual = 0.0176658, Final residual = 0.000307281, No Iterations 1
smoothSolver:  Solving for Conc01, Initial residual = 0.00713141, Final residual = 0.000214885, No Iterations 5
smoothSolver:  Solving for Conc02, Initial residual = 0.00726527, Final residual = 0.000221901, No Iterations 5
smoothSolver:  Solving for Conc03, Initial residual = 0.00738107, Final residual = 0.000227009, No Iterations 5
smoothSolver:  Solving for Conc045, Initial residual = 0.00760801, Final residual = 0.000234717, No Iterations 5
ExecutionTime = 25.21 s  ClockTime = 25 s

Time = 1.65

smoothSolver:  Solving for Ux, Initial residual = 0.0421276, Final residual = 0.00212051, No Iterations 3
smoothSolver:  Solving for Uy, Initial residual = 0.160086, Final residual = 0.00713992, No Iterations 3
smoothSolver:  Solving for Uz, Initial residual = 0.129903, Final residual = 0.00644217, No Iterations 3
GAMG:  Solving for p, Initial residual = 0.1291, Final residual = 0.00368485, No Iterations 2
time step continuity errors : sum local = 0.000125751, global = -1.12022e-06, cumulative = -0.00015811
depth: 1.54
smoothSolver:  Solving for epsilon, Initial residual = 0.0213884, Final residual = 0.000446842, No Iterations 1
smoothSolver:  Solving for k, Initial residual = 0.0172517, Final residual = 0.000311351, No Iterations 1
smoothSolver:  Solving for Conc01, Initial residual = 0.00691924, Final residual = 0.000208214, No Iterations 5
smoothSolver:  Solving for Conc02, Initial residual = 0.00705204, Final residual = 0.000215007, No Iterations 5
smoothSolver:  Solving for Conc03, Initial residual = 0.00716677, Final residual = 0.000219954, No Iterations 5
smoothSolver:  Solving for Conc045, Initial residual = 0.00739131, Final residual = 0.000227388, No Iterations 5
ExecutionTime = 25.69 s  ClockTime = 26 s

Time = 1.7

smoothSolver:  Solving for Ux, Initial residual = 0.0426523, Final residual = 0.00215842, No Iterations 3
smoothSolver:  Solving for Uy, Initial residual = 0.158136, Final residual = 0.00697761, No Iterations 3
smoothSolver:  Solving for Uz, Initial residual = 0.130236, Final residual = 0.00653782, No Iterations 3
GAMG:  Solving for p, Initial residual = 0.129777, Final residual = 0.00384558, No Iterations 2
time step continuity errors : sum local = 0.000127199, global = -3.21479e-06, cumulative = -0.000161325
depth: 1.54
smoothSolver:  Solving for epsilon, Initial residual = 0.0202891, Final residual = 0.000440783, No Iterations 1
smoothSolver:  Solving for k, Initial residual = 0.016836, Final residual = 0.000315612, No Iterations 1
smoothSolver:  Solving for Conc01, Initial residual = 0.00671972, Final residual = 0.000201855, No Iterations 5
smoothSolver:  Solving for Conc02, Initial residual = 0.00685146, Final residual = 0.000208421, No Iterations 5
smoothSolver:  Solving for Conc03, Initial residual = 0.00696515, Final residual = 0.000213209, No Iterations 5
smoothSolver:  Solving for Conc045, Initial residual = 0.00718733, Final residual = 0.000220378, No Iterations 5
ExecutionTime = 26.17 s  ClockTime = 26 s

Time = 1.75

smoothSolver:  Solving for Ux, Initial residual = 0.0434822, Final residual = 0.00219464, No Iterations 3
smoothSolver:  Solving for Uy, Initial residual = 0.158308, Final residual = 0.0069027, No Iterations 3
smoothSolver:  Solving for Uz, Initial residual = 0.130709, Final residual = 0.00660652, No Iterations 3
GAMG:  Solving for p, Initial residual = 0.130394, Final residual = 0.0039486, No Iterations 2
time step continuity errors : sum local = 0.000126469, global = -4.90613e-06, cumulative = -0.000166231
depth: 1.54
smoothSolver:  Solving for epsilon, Initial residual = 0.0192917, Final residual = 0.000430807, No Iterations 1
smoothSolver:  Solving for k, Initial residual = 0.0164468, Final residual = 0.000318635, No Iterations 1
smoothSolver:  Solving for Conc01, Initial residual = 0.00653176, Final residual = 0.00019576, No Iterations 5
smoothSolver:  Solving for Conc02, Initial residual = 0.00666247, Final residual = 0.000202094, No Iterations 5
smoothSolver:  Solving for Conc03, Initial residual = 0.00677513, Final residual = 0.000206724, No Iterations 5
smoothSolver:  Solving for Conc045, Initial residual = 0.00699499, Final residual = 0.000213636, No Iterations 5
ExecutionTime = 26.64 s  ClockTime = 27 s

Time = 1.8

smoothSolver:  Solving for Ux, Initial residual = 0.0444673, Final residual = 0.00222836, No Iterations 3
smoothSolver:  Solving for Uy, Initial residual = 0.160256, Final residual = 0.0069441, No Iterations 3
smoothSolver:  Solving for Uz, Initial residual = 0.130826, Final residual = 0.00661286, No Iterations 3
GAMG:  Solving for p, Initial residual = 0.131113, Final residual = 0.00433024, No Iterations 2
time step continuity errors : sum local = 0.000133972, global = -2.20623e-06, cumulative = -0.000168437
depth: 1.54
smoothSolver:  Solving for epsilon, Initial residual = 0.0185225, Final residual = 0.000420233, No Iterations 1
smoothSolver:  Solving for k, Initial residual = 0.0161247, Final residual = 0.000319888, No Iterations 1
smoothSolver:  Solving for Conc01, Initial residual = 0.00635456, Final residual = 0.000189897, No Iterations 5
smoothSolver:  Solving for Conc02, Initial residual = 0.00648424, Final residual = 0.000195993, No Iterations 5
smoothSolver:  Solving for Conc03, Initial residual = 0.00659588, Final residual = 0.000200467, No Iterations 5
smoothSolver:  Solving for Conc045, Initial residual = 0.00681343, Final residual = 0.00020713, No Iterations 5
ExecutionTime = 27.1 s  ClockTime = 27 s

Time = 1.85

smoothSolver:  Solving for Ux, Initial residual = 0.0450968, Final residual = 0.00225195, No Iterations 3
smoothSolver:  Solving for Uy, Initial residual = 0.163115, Final residual = 0.0070712, No Iterations 3
smoothSolver:  Solving for Uz, Initial residual = 0.131058, Final residual = 0.00662747, No Iterations 3
GAMG:  Solving for p, Initial residual = 0.138789, Final residual = 0.00436343, No Iterations 2
time step continuity errors : sum local = 0.000123654, global = 1.43641e-06, cumulative = -0.000167001
depth: 1.54
smoothSolver:  Solving for epsilon, Initial residual = 0.0180354, Final residual = 0.000415337, No Iterations 1
smoothSolver:  Solving for k, Initial residual = 0.0158887, Final residual = 0.000321916, No Iterations 1
smoothSolver:  Solving for Conc01, Initial residual = 0.00618723, Final residual = 0.000184229, No Iterations 5
smoothSolver:  Solving for Conc02, Initial residual = 0.0063159, Final residual = 0.00019008, No Iterations 5
smoothSolver:  Solving for Conc03, Initial residual = 0.00642654, Final residual = 0.000194399, No Iterations 5
smoothSolver:  Solving for Conc045, Initial residual = 0.00664184, Final residual = 0.000200821, No Iterations 5
ExecutionTime = 27.57 s  ClockTime = 28 s

Time = 1.9

smoothSolver:  Solving for Ux, Initial residual = 0.0453675, Final residual = 0.00229065, No Iterations 3
smoothSolver:  Solving for Uy, Initial residual = 0.165853, Final residual = 0.0071802, No Iterations 3
smoothSolver:  Solving for Uz, Initial residual = 0.130505, Final residual = 0.00662943, No Iterations 3
GAMG:  Solving for p, Initial residual = 0.140544, Final residual = 0.00455095, No Iterations 2
time step continuity errors : sum local = 0.000123533, global = 4.71559e-06, cumulative = -0.000162285
depth: 1.54
smoothSolver:  Solving for epsilon, Initial residual = 0.0176293, Final residual = 0.000411368, No Iterations 1
smoothSolver:  Solving for k, Initial residual = 0.0157211, Final residual = 0.000326558, No Iterations 1
smoothSolver:  Solving for Conc01, Initial residual = 0.00602892, Final residual = 0.000178712, No Iterations 5
smoothSolver:  Solving for Conc02, Initial residual = 0.00615658, Final residual = 0.000184308, No Iterations 5
smoothSolver:  Solving for Conc03, Initial residual = 0.00626624, Final residual = 0.000188472, No Iterations 5
smoothSolver:  Solving for Conc045, Initial residual = 0.00647932, Final residual = 0.000194659, No Iterations 5
ExecutionTime = 28.05 s  ClockTime = 28 s

Time = 1.95

smoothSolver:  Solving for Ux, Initial residual = 0.0451906, Final residual = 0.00231557, No Iterations 3
smoothSolver:  Solving for Uy, Initial residual = 0.168736, Final residual = 0.00732073, No Iterations 3
smoothSolver:  Solving for Uz, Initial residual = 0.129635, Final residual = 0.00659525, No Iterations 3
GAMG:  Solving for p, Initial residual = 0.141055, Final residual = 0.00466481, No Iterations 2
time step continuity errors : sum local = 0.000121068, global = 7.19441e-06, cumulative = -0.000155091
depth: 1.54
smoothSolver:  Solving for epsilon, Initial residual = 0.0173476, Final residual = 0.000409078, No Iterations 1
smoothSolver:  Solving for k, Initial residual = 0.0155971, Final residual = 0.000332302, No Iterations 1
smoothSolver:  Solving for Conc01, Initial residual = 0.00587891, Final residual = 0.000173316, No Iterations 5
smoothSolver:  Solving for Conc02, Initial residual = 0.00600559, Final residual = 0.000178645, No Iterations 5
smoothSolver:  Solving for Conc03, Initial residual = 0.00611426, Final residual = 0.000182654, No Iterations 5
smoothSolver:  Solving for Conc045, Initial residual = 0.00632514, Final residual = 0.000188611, No Iterations 5
ExecutionTime = 28.52 s  ClockTime = 29 s

Time = 2

smoothSolver:  Solving for Ux, Initial residual = 0.0447035, Final residual = 0.00234451, No Iterations 3
smoothSolver:  Solving for Uy, Initial residual = 0.17064, Final residual = 0.00750848, No Iterations 3
smoothSolver:  Solving for Uz, Initial residual = 0.128941, Final residual = 0.00660952, No Iterations 3
GAMG:  Solving for p, Initial residual = 0.13991, Final residual = 0.00547143, No Iterations 2
time step continuity errors : sum local = 0.000135861, global = 5.17173e-06, cumulative = -0.000149919
depth: 1.54
smoothSolver:  Solving for epsilon, Initial residual = 0.0171455, Final residual = 0.000411927, No Iterations 1
smoothSolver:  Solving for k, Initial residual = 0.0155411, Final residual = 0.000340205, No Iterations 1
smoothSolver:  Solving for Conc01, Initial residual = 0.00573634, Final residual = 0.000167989, No Iterations 5
smoothSolver:  Solving for Conc02, Initial residual = 0.00586203, Final residual = 0.000173038, No Iterations 5
smoothSolver:  Solving for Conc03, Initial residual = 0.00596974, Final residual = 0.00017689, No Iterations 5
smoothSolver:  Solving for Conc045, Initial residual = 0.00617846, Final residual = 0.000182618, No Iterations 5
ExecutionTime = 29 s  ClockTime = 29 s

Time = 2.05

smoothSolver:  Solving for Ux, Initial residual = 0.0440438, Final residual = 0.00237703, No Iterations 3
smoothSolver:  Solving for Uy, Initial residual = 0.170551, Final residual = 0.00765862, No Iterations 3
smoothSolver:  Solving for Uz, Initial residual = 0.12786, Final residual = 0.00664816, No Iterations 3
GAMG:  Solving for p, Initial residual = 0.126546, Final residual = 0.00453076, No Iterations 2
time step continuity errors : sum local = 0.000117974, global = 2.96281e-06, cumulative = -0.000146956
depth: 1.54
smoothSolver:  Solving for epsilon, Initial residual = 0.0168071, Final residual = 0.000424746, No Iterations 1
smoothSolver:  Solving for k, Initial residual = 0.0154274, Final residual = 0.000353787, No Iterations 1
smoothSolver:  Solving for Conc01, Initial residual = 0.00560074, Final residual = 0.000162718, No Iterations 5
smoothSolver:  Solving for Conc02, Initial residual = 0.00572547, Final residual = 0.000167477, No Iterations 5
smoothSolver:  Solving for Conc03, Initial residual = 0.00583223, Final residual = 0.000171169, No Iterations 5
smoothSolver:  Solving for Conc045, Initial residual = 0.0060388, Final residual = 0.00017667, No Iterations 5
ExecutionTime = 29.47 s  ClockTime = 30 s

Time = 2.1

smoothSolver:  Solving for Ux, Initial residual = 0.0436265, Final residual = 0.00240786, No Iterations 3
smoothSolver:  Solving for Uy, Initial residual = 0.167679, Final residual = 0.00772718, No Iterations 3
smoothSolver:  Solving for Uz, Initial residual = 0.126542, Final residual = 0.00672516, No Iterations 3
GAMG:  Solving for p, Initial residual = 0.125249, Final residual = 0.00471668, No Iterations 2
time step continuity errors : sum local = 0.000119212, global = 1.63551e-06, cumulative = -0.000145321
depth: 1.54
smoothSolver:  Solving for epsilon, Initial residual = 0.0167488, Final residual = 0.000444317, No Iterations 1
smoothSolver:  Solving for k, Initial residual = 0.015365, Final residual = 0.000369609, No Iterations 1
smoothSolver:  Solving for Conc01, Initial residual = 0.00547147, Final residual = 0.000157475, No Iterations 5
smoothSolver:  Solving for Conc02, Initial residual = 0.00559523, Final residual = 0.000161934, No Iterations 5
smoothSolver:  Solving for Conc03, Initial residual = 0.00570104, Final residual = 0.000165461, No Iterations 5
smoothSolver:  Solving for Conc045, Initial residual = 0.00590548, Final residual = 0.000170736, No Iterations 5
ExecutionTime = 29.94 s  ClockTime = 30 s

Time = 2.15

smoothSolver:  Solving for Ux, Initial residual = 0.0435016, Final residual = 0.00241892, No Iterations 3
smoothSolver:  Solving for Uy, Initial residual = 0.165042, Final residual = 0.00765515, No Iterations 3
smoothSolver:  Solving for Uz, Initial residual = 0.124827, Final residual = 0.00681959, No Iterations 3
GAMG:  Solving for p, Initial residual = 0.125155, Final residual = 0.00494461, No Iterations 2
time step continuity errors : sum local = 0.000122374, global = 2.1708e-07, cumulative = -0.000145104
depth: 1.54
smoothSolver:  Solving for epsilon, Initial residual = 0.0169656, Final residual = 0.000459904, No Iterations 1
smoothSolver:  Solving for k, Initial residual = 0.0154121, Final residual = 0.000384536, No Iterations 1
smoothSolver:  Solving for Conc01, Initial residual = 0.00534815, Final residual = 0.000152261, No Iterations 5
smoothSolver:  Solving for Conc02, Initial residual = 0.00547096, Final residual = 0.000156415, No Iterations 5
smoothSolver:  Solving for Conc03, Initial residual = 0.00557582, Final residual = 0.000159774, No Iterations 5
smoothSolver:  Solving for Conc045, Initial residual = 0.00577816, Final residual = 0.000164822, No Iterations 5
ExecutionTime = 30.4 s  ClockTime = 31 s

Time = 2.2

smoothSolver:  Solving for Ux, Initial residual = 0.0433592, Final residual = 0.00243049, No Iterations 3
smoothSolver:  Solving for Uy, Initial residual = 0.162936, Final residual = 0.00751588, No Iterations 3
smoothSolver:  Solving for Uz, Initial residual = 0.123073, Final residual = 0.00688129, No Iterations 3
GAMG:  Solving for p, Initial residual = 0.125943, Final residual = 0.00493811, No Iterations 2
time step continuity errors : sum local = 0.00011938, global = -1.08871e-06, cumulative = -0.000146192
depth: 1.54
smoothSolver:  Solving for epsilon, Initial residual = 0.0171973, Final residual = 0.000476282, No Iterations 1
smoothSolver:  Solving for k, Initial residual = 0.0154855, Final residual = 0.000399298, No Iterations 1
smoothSolver:  Solving for Conc01, Initial residual = 0.00523142, Final residual = 0.000147163, No Iterations 5
smoothSolver:  Solving for Conc02, Initial residual = 0.00535329, Final residual = 0.00015102, No Iterations 5
smoothSolver:  Solving for Conc03, Initial residual = 0.00545723, Final residual = 0.000154211, No Iterations 5
smoothSolver:  Solving for Conc045, Initial residual = 0.00565745, Final residual = 0.000159035, No Iterations 5
ExecutionTime = 30.88 s  ClockTime = 31 s

Time = 2.25

smoothSolver:  Solving for Ux, Initial residual = 0.0433154, Final residual = 0.00243482, No Iterations 3
smoothSolver:  Solving for Uy, Initial residual = 0.161466, Final residual = 0.00743661, No Iterations 3
smoothSolver:  Solving for Uz, Initial residual = 0.121536, Final residual = 0.00689571, No Iterations 3
GAMG:  Solving for p, Initial residual = 0.124852, Final residual = 0.00476487, No Iterations 2
time step continuity errors : sum local = 0.000114625, global = -2.00513e-06, cumulative = -0.000148198
depth: 1.54
smoothSolver:  Solving for epsilon, Initial residual = 0.0172478, Final residual = 0.000488493, No Iterations 1
smoothSolver:  Solving for k, Initial residual = 0.0155207, Final residual = 0.00041105, No Iterations 1
smoothSolver:  Solving for Conc01, Initial residual = 0.00512132, Final residual = 0.00014221, No Iterations 5
smoothSolver:  Solving for Conc02, Initial residual = 0.0052423, Final residual = 0.000145786, No Iterations 5
smoothSolver:  Solving for Conc03, Initial residual = 0.00534533, Final residual = 0.000148813, No Iterations 5
smoothSolver:  Solving for Conc045, Initial residual = 0.00554352, Final residual = 0.000153418, No Iterations 5
ExecutionTime = 31.36 s  ClockTime = 32 s

Time = 2.3

smoothSolver:  Solving for Ux, Initial residual = 0.0432117, Final residual = 0.002427, No Iterations 3
smoothSolver:  Solving for Uy, Initial residual = 0.159499, Final residual = 0.00733, No Iterations 3
smoothSolver:  Solving for Uz, Initial residual = 0.120232, Final residual = 0.00679851, No Iterations 3
GAMG:  Solving for p, Initial residual = 0.124933, Final residual = 0.00492115, No Iterations 2
time step continuity errors : sum local = 0.000115476, global = -2.39878e-06, cumulative = -0.000150596
depth: 1.54
smoothSolver:  Solving for epsilon, Initial residual = 0.0173225, Final residual = 0.000502492, No Iterations 1
smoothSolver:  Solving for k, Initial residual = 0.0155293, Final residual = 0.000422358, No Iterations 1
smoothSolver:  Solving for Conc01, Initial residual = 0.00501744, Final residual = 0.000137374, No Iterations 5
smoothSolver:  Solving for Conc02, Initial residual = 0.00513757, Final residual = 0.000140694, No Iterations 5
smoothSolver:  Solving for Conc03, Initial residual = 0.00523971, Final residual = 0.000143567, No Iterations 5
smoothSolver:  Solving for Conc045, Initial residual = 0.00543589, Final residual = 0.00014796, No Iterations 5
ExecutionTime = 31.83 s  ClockTime = 32 s

Time = 2.35

smoothSolver:  Solving for Ux, Initial residual = 0.0431595, Final residual = 0.00243946, No Iterations 3
smoothSolver:  Solving for Uy, Initial residual = 0.157595, Final residual = 0.00720663, No Iterations 3
smoothSolver:  Solving for Uz, Initial residual = 0.118792, Final residual = 0.0067427, No Iterations 3
GAMG:  Solving for p, Initial residual = 0.124573, Final residual = 0.00504431, No Iterations 2
time step continuity errors : sum local = 0.000117132, global = -2.34508e-06, cumulative = -0.000152941
depth: 1.54
smoothSolver:  Solving for epsilon, Initial residual = 0.0171302, Final residual = 0.000505304, No Iterations 1
smoothSolver:  Solving for k, Initial residual = 0.0154607, Final residual = 0.000429085, No Iterations 1
smoothSolver:  Solving for Conc01, Initial residual = 0.00491922, Final residual = 0.000132616, No Iterations 5
smoothSolver:  Solving for Conc02, Initial residual = 0.00503851, Final residual = 0.000135712, No Iterations 5
smoothSolver:  Solving for Conc03, Initial residual = 0.00513983, Final residual = 0.000138439, No Iterations 5
smoothSolver:  Solving for Conc045, Initial residual = 0.00533399, Final residual = 0.000142632, No Iterations 5
ExecutionTime = 32.31 s  ClockTime = 33 s

Time = 2.4

smoothSolver:  Solving for Ux, Initial residual = 0.043292, Final residual = 0.00245537, No Iterations 3
smoothSolver:  Solving for Uy, Initial residual = 0.155077, Final residual = 0.00702138, No Iterations 3
smoothSolver:  Solving for Uz, Initial residual = 0.117183, Final residual = 0.0066736, No Iterations 3
GAMG:  Solving for p, Initial residual = 0.124765, Final residual = 0.00505127, No Iterations 2
time step continuity errors : sum local = 0.000116805, global = -1.99261e-06, cumulative = -0.000154934
depth: 1.54
smoothSolver:  Solving for epsilon, Initial residual = 0.0167843, Final residual = 0.000497763, No Iterations 1
smoothSolver:  Solving for k, Initial residual = 0.0153203, Final residual = 0.000429993, No Iterations 1
smoothSolver:  Solving for Conc01, Initial residual = 0.00482465, Final residual = 0.00012778, No Iterations 5
smoothSolver:  Solving for Conc02, Initial residual = 0.00494315, Final residual = 0.000130682, No Iterations 5
smoothSolver:  Solving for Conc03, Initial residual = 0.00504363, Final residual = 0.000133273, No Iterations 5
smoothSolver:  Solving for Conc045, Initial residual = 0.0052359, Final residual = 0.000137268, No Iterations 5
ExecutionTime = 32.78 s  ClockTime = 33 s

Time = 2.45

smoothSolver:  Solving for Ux, Initial residual = 0.0434635, Final residual = 0.00246657, No Iterations 3
smoothSolver:  Solving for Uy, Initial residual = 0.152673, Final residual = 0.00686631, No Iterations 3
smoothSolver:  Solving for Uz, Initial residual = 0.115594, Final residual = 0.00657929, No Iterations 3
GAMG:  Solving for p, Initial residual = 0.1242, Final residual = 0.00528104, No Iterations 2
time step continuity errors : sum local = 0.000123035, global = -1.36096e-06, cumulative = -0.000156295
depth: 1.54
smoothSolver:  Solving for epsilon, Initial residual = 0.016361, Final residual = 0.000492232, No Iterations 1
smoothSolver:  Solving for k, Initial residual = 0.0151612, Final residual = 0.000430418, No Iterations 1
smoothSolver:  Solving for Conc01, Initial residual = 0.00473275, Final residual = 0.000122827, No Iterations 5
smoothSolver:  Solving for Conc02, Initial residual = 0.00485046, Final residual = 0.000125562, No Iterations 5
smoothSolver:  Solving for Conc03, Initial residual = 0.00495009, Final residual = 0.00012802, No Iterations 5
smoothSolver:  Solving for Conc045, Initial residual = 0.00514044, Final residual = 0.000131812, No Iterations 5
ExecutionTime = 33.25 s  ClockTime = 34 s

Time = 2.5

smoothSolver:  Solving for Ux, Initial residual = 0.0438294, Final residual = 0.00247053, No Iterations 3
smoothSolver:  Solving for Uy, Initial residual = 0.151035, Final residual = 0.00672625, No Iterations 3
smoothSolver:  Solving for Uz, Initial residual = 0.113946, Final residual = 0.00646418, No Iterations 3
GAMG:  Solving for p, Initial residual = 0.123254, Final residual = 0.00506872, No Iterations 2
time step continuity errors : sum local = 0.000118521, global = -2.38519e-07, cumulative = -0.000156533
depth: 1.54
smoothSolver:  Solving for epsilon, Initial residual = 0.0160676, Final residual = 0.000491808, No Iterations 1
smoothSolver:  Solving for k, Initial residual = 0.015026, Final residual = 0.0004312, No Iterations 1
smoothSolver:  Solving for Conc01, Initial residual = 0.00464331, Final residual = 0.000117811, No Iterations 5
smoothSolver:  Solving for Conc02, Initial residual = 0.00476023, Final residual = 0.000120391, No Iterations 5
smoothSolver:  Solving for Conc03, Initial residual = 0.00485901, Final residual = 0.000122713, No Iterations 5
smoothSolver:  Solving for Conc045, Initial residual = 0.00504732, Final residual = 0.000126294, No Iterations 5
ExecutionTime = 33.72 s  ClockTime = 34 s

Time = 2.55

smoothSolver:  Solving for Ux, Initial residual = 0.0442278, Final residual = 0.00245513, No Iterations 3
smoothSolver:  Solving for Uy, Initial residual = 0.149606, Final residual = 0.00664213, No Iterations 3
smoothSolver:  Solving for Uz, Initial residual = 0.112564, Final residual = 0.00631619, No Iterations 3
GAMG:  Solving for p, Initial residual = 0.121798, Final residual = 0.00503499, No Iterations 2
time step continuity errors : sum local = 0.000118813, global = 1.20003e-06, cumulative = -0.000155333
depth: 1.54
smoothSolver:  Solving for epsilon, Initial residual = 0.0160915, Final residual = 0.00049412, No Iterations 1
smoothSolver:  Solving for k, Initial residual = 0.0150148, Final residual = 0.000436169, No Iterations 1
smoothSolver:  Solving for Conc01, Initial residual = 0.00455596, Final residual = 0.000112773, No Iterations 5
smoothSolver:  Solving for Conc02, Initial residual = 0.00467205, Final residual = 0.000115191, No Iterations 5
smoothSolver:  Solving for Conc03, Initial residual = 0.00477001, Final residual = 0.000117368, No Iterations 5
smoothSolver:  Solving for Conc045, Initial residual = 0.00495615, Final residual = 0.000120724, No Iterations 5
ExecutionTime = 34.19 s  ClockTime = 35 s

Time = 2.6

smoothSolver:  Solving for Ux, Initial residual = 0.0445648, Final residual = 0.00246225, No Iterations 3
smoothSolver:  Solving for Uy, Initial residual = 0.149246, Final residual = 0.00658977, No Iterations 3
smoothSolver:  Solving for Uz, Initial residual = 0.11105, Final residual = 0.00613035, No Iterations 3
GAMG:  Solving for p, Initial residual = 0.121252, Final residual = 0.00513039, No Iterations 2
time step continuity errors : sum local = 0.000121278, global = 2.66417e-06, cumulative = -0.000152669
depth: 1.54
smoothSolver:  Solving for epsilon, Initial residual = 0.0161992, Final residual = 0.000491446, No Iterations 1
smoothSolver:  Solving for k, Initial residual = 0.0151134, Final residual = 0.000441398, No Iterations 1
smoothSolver:  Solving for Conc01, Initial residual = 0.00447153, Final residual = 0.000222415, No Iterations 4
smoothSolver:  Solving for Conc02, Initial residual = 0.00458675, Final residual = 0.000227348, No Iterations 4
smoothSolver:  Solving for Conc03, Initial residual = 0.00468385, Final residual = 0.000231699, No Iterations 4
smoothSolver:  Solving for Conc045, Initial residual = 0.00486778, Final residual = 0.000238652, No Iterations 4
ExecutionTime = 34.66 s  ClockTime = 35 s

Time = 2.65

smoothSolver:  Solving for Ux, Initial residual = 0.0447889, Final residual = 0.00246484, No Iterations 3
smoothSolver:  Solving for Uy, Initial residual = 0.148952, Final residual = 0.00657414, No Iterations 3
smoothSolver:  Solving for Uz, Initial residual = 0.110124, Final residual = 0.00599724, No Iterations 3
GAMG:  Solving for p, Initial residual = 0.120502, Final residual = 0.00530286, No Iterations 2
time step continuity errors : sum local = 0.000126202, global = 2.92483e-06, cumulative = -0.000149744
depth: 1.54
smoothSolver:  Solving for epsilon, Initial residual = 0.0161943, Final residual = 0.000487752, No Iterations 1
smoothSolver:  Solving for k, Initial residual = 0.0152378, Final residual = 0.000443281, No Iterations 1
smoothSolver:  Solving for Conc01, Initial residual = 0.00439188, Final residual = 0.000214145, No Iterations 4
smoothSolver:  Solving for Conc02, Initial residual = 0.00450628, Final residual = 0.000218709, No Iterations 4
smoothSolver:  Solving for Conc03, Initial residual = 0.00460249, Final residual = 0.000222758, No Iterations 4
smoothSolver:  Solving for Conc045, Initial residual = 0.00478427, Final residual = 0.000229211, No Iterations 4
ExecutionTime = 35.12 s  ClockTime = 35 s

Time = 2.7

smoothSolver:  Solving for Ux, Initial residual = 0.0447895, Final residual = 0.00245742, No Iterations 3
smoothSolver:  Solving for Uy, Initial residual = 0.147187, Final residual = 0.00658069, No Iterations 3
smoothSolver:  Solving for Uz, Initial residual = 0.109456, Final residual = 0.00599762, No Iterations 3
GAMG:  Solving for p, Initial residual = 0.117123, Final residual = 0.00466244, No Iterations 2
time step continuity errors : sum local = 0.000114719, global = 3.27918e-06, cumulative = -0.000146465
depth: 1.54
smoothSolver:  Solving for epsilon, Initial residual = 0.0161361, Final residual = 0.000491364, No Iterations 1
smoothSolver:  Solving for k, Initial residual = 0.0152904, Final residual = 0.000449038, No Iterations 1
smoothSolver:  Solving for Conc01, Initial residual = 0.00431506, Final residual = 0.000206175, No Iterations 4
smoothSolver:  Solving for Conc02, Initial residual = 0.00442868, Final residual = 0.000210337, No Iterations 4
smoothSolver:  Solving for Conc03, Initial residual = 0.00452402, Final residual = 0.000214063, No Iterations 4
smoothSolver:  Solving for Conc045, Initial residual = 0.00470358, Final residual = 0.000219988, No Iterations 4
ExecutionTime = 35.58 s  ClockTime = 36 s

Time = 2.75

smoothSolver:  Solving for Ux, Initial residual = 0.0448102, Final residual = 0.00245167, No Iterations 3
smoothSolver:  Solving for Uy, Initial residual = 0.145593, Final residual = 0.0066081, No Iterations 3
smoothSolver:  Solving for Uz, Initial residual = 0.109906, Final residual = 0.00603191, No Iterations 3
GAMG:  Solving for p, Initial residual = 0.117293, Final residual = 0.00465181, No Iterations 2
time step continuity errors : sum local = 0.000115631, global = 3.07891e-06, cumulative = -0.000143386
depth: 1.54
smoothSolver:  Solving for epsilon, Initial residual = 0.016067, Final residual = 0.000496551, No Iterations 1
smoothSolver:  Solving for k, Initial residual = 0.0152968, Final residual = 0.000455918, No Iterations 1
smoothSolver:  Solving for Conc01, Initial residual = 0.00424192, Final residual = 0.00019866, No Iterations 4
smoothSolver:  Solving for Conc02, Initial residual = 0.00435473, Final residual = 0.000202401, No Iterations 4
smoothSolver:  Solving for Conc03, Initial residual = 0.00444925, Final residual = 0.000205793, No Iterations 4
smoothSolver:  Solving for Conc045, Initial residual = 0.00462655, Final residual = 0.000211162, No Iterations 4
ExecutionTime = 36.06 s  ClockTime = 36 s

Time = 2.8

smoothSolver:  Solving for Ux, Initial residual = 0.044802, Final residual = 0.00244712, No Iterations 3
smoothSolver:  Solving for Uy, Initial residual = 0.144306, Final residual = 0.00661788, No Iterations 3
smoothSolver:  Solving for Uz, Initial residual = 0.110747, Final residual = 0.00600271, No Iterations 3
GAMG:  Solving for p, Initial residual = 0.118789, Final residual = 0.00469687, No Iterations 2
time step continuity errors : sum local = 0.000116686, global = 2.21343e-06, cumulative = -0.000141173
depth: 1.54
smoothSolver:  Solving for epsilon, Initial residual = 0.015895, Final residual = 0.000491919, No Iterations 1
smoothSolver:  Solving for k, Initial residual = 0.0152383, Final residual = 0.000459266, No Iterations 1
smoothSolver:  Solving for Conc01, Initial residual = 0.00417278, Final residual = 0.000191642, No Iterations 4
smoothSolver:  Solving for Conc02, Initial residual = 0.00428485, Final residual = 0.000194963, No Iterations 4
smoothSolver:  Solving for Conc03, Initial residual = 0.00437848, Final residual = 0.000198014, No Iterations 4
smoothSolver:  Solving for Conc045, Initial residual = 0.00455342, Final residual = 0.000202809, No Iterations 4
ExecutionTime = 36.53 s  ClockTime = 37 s

Time = 2.85

smoothSolver:  Solving for Ux, Initial residual = 0.0448833, Final residual = 0.00245211, No Iterations 3
smoothSolver:  Solving for Uy, Initial residual = 0.143034, Final residual = 0.00657792, No Iterations 3
smoothSolver:  Solving for Uz, Initial residual = 0.111719, Final residual = 0.00596091, No Iterations 3
GAMG:  Solving for p, Initial residual = 0.117994, Final residual = 0.00459392, No Iterations 2
time step continuity errors : sum local = 0.000116017, global = 1.73304e-06, cumulative = -0.00013944
depth: 1.54
smoothSolver:  Solving for epsilon, Initial residual = 0.0156505, Final residual = 0.000485348, No Iterations 1
smoothSolver:  Solving for k, Initial residual = 0.0151721, Final residual = 0.000462849, No Iterations 1
smoothSolver:  Solving for Conc01, Initial residual = 0.00410723, Final residual = 0.000185045, No Iterations 4
smoothSolver:  Solving for Conc02, Initial residual = 0.00421861, Final residual = 0.000187962, No Iterations 4
smoothSolver:  Solving for Conc03, Initial residual = 0.00431129, Final residual = 0.000190668, No Iterations 4
smoothSolver:  Solving for Conc045, Initial residual = 0.00448352, Final residual = 0.000194878, No Iterations 4
ExecutionTime = 36.99 s  ClockTime = 37 s

Time = 2.9

smoothSolver:  Solving for Ux, Initial residual = 0.0449601, Final residual = 0.00247253, No Iterations 3
smoothSolver:  Solving for Uy, Initial residual = 0.141967, Final residual = 0.00656343, No Iterations 3
smoothSolver:  Solving for Uz, Initial residual = 0.112493, Final residual = 0.00601592, No Iterations 3
GAMG:  Solving for p, Initial residual = 0.116586, Final residual = 0.00460497, No Iterations 2
time step continuity errors : sum local = 0.000118072, global = 2.42063e-06, cumulative = -0.000137019
depth: 1.54
smoothSolver:  Solving for epsilon, Initial residual = 0.0154417, Final residual = 0.000472546, No Iterations 1
smoothSolver:  Solving for k, Initial residual = 0.0151063, Final residual = 0.000462554, No Iterations 1
smoothSolver:  Solving for Conc01, Initial residual = 0.00404424, Final residual = 0.000178727, No Iterations 4
smoothSolver:  Solving for Conc02, Initial residual = 0.00415501, Final residual = 0.000181258, No Iterations 4
smoothSolver:  Solving for Conc03, Initial residual = 0.00424659, Final residual = 0.000183617, No Iterations 4
smoothSolver:  Solving for Conc045, Initial residual = 0.00441587, Final residual = 0.000187232, No Iterations 4
ExecutionTime = 37.46 s  ClockTime = 38 s

Time = 2.95

smoothSolver:  Solving for Ux, Initial residual = 0.0450878, Final residual = 0.00249527, No Iterations 3
smoothSolver:  Solving for Uy, Initial residual = 0.140382, Final residual = 0.00650173, No Iterations 3
smoothSolver:  Solving for Uz, Initial residual = 0.112399, Final residual = 0.00607255, No Iterations 3
GAMG:  Solving for p, Initial residual = 0.114177, Final residual = 0.00454781, No Iterations 2
time step continuity errors : sum local = 0.000119712, global = 3.7937e-06, cumulative = -0.000133226
depth: 1.54
smoothSolver:  Solving for epsilon, Initial residual = 0.0152632, Final residual = 0.000462431, No Iterations 1
smoothSolver:  Solving for k, Initial residual = 0.0150978, Final residual = 0.00046217, No Iterations 1
smoothSolver:  Solving for Conc01, Initial residual = 0.0039838, Final residual = 0.000172673, No Iterations 4
smoothSolver:  Solving for Conc02, Initial residual = 0.00409392, Final residual = 0.000174838, No Iterations 4
smoothSolver:  Solving for Conc03, Initial residual = 0.00418446, Final residual = 0.000176852, No Iterations 4
smoothSolver:  Solving for Conc045, Initial residual = 0.00435013, Final residual = 0.000179867, No Iterations 4
ExecutionTime = 37.92 s  ClockTime = 38 s

Time = 3

smoothSolver:  Solving for Ux, Initial residual = 0.0453263, Final residual = 0.00250917, No Iterations 3
smoothSolver:  Solving for Uy, Initial residual = 0.139309, Final residual = 0.00647255, No Iterations 3
smoothSolver:  Solving for Uz, Initial residual = 0.112117, Final residual = 0.00608405, No Iterations 3
GAMG:  Solving for p, Initial residual = 0.11477, Final residual = 0.00490826, No Iterations 2
time step continuity errors : sum local = 0.000131052, global = 3.00263e-06, cumulative = -0.000130223
depth: 1.54
smoothSolver:  Solving for epsilon, Initial residual = 0.0152611, Final residual = 0.000461383, No Iterations 1
smoothSolver:  Solving for k, Initial residual = 0.0151826, Final residual = 0.000465516, No Iterations 1
smoothSolver:  Solving for Conc01, Initial residual = 0.00392501, Final residual = 0.000166755, No Iterations 4
smoothSolver:  Solving for Conc02, Initial residual = 0.00403444, Final residual = 0.00016857, No Iterations 4
smoothSolver:  Solving for Conc03, Initial residual = 0.00412395, Final residual = 0.000170247, No Iterations 4
smoothSolver:  Solving for Conc045, Initial residual = 0.00428584, Final residual = 0.00017266, No Iterations 4
ExecutionTime = 38.39 s  ClockTime = 39 s

Time = 3.05

smoothSolver:  Solving for Ux, Initial residual = 0.0455218, Final residual = 0.0024938, No Iterations 3
smoothSolver:  Solving for Uy, Initial residual = 0.138107, Final residual = 0.00642219, No Iterations 3
smoothSolver:  Solving for Uz, Initial residual = 0.11206, Final residual = 0.00601929, No Iterations 3
GAMG:  Solving for p, Initial residual = 0.110835, Final residual = 0.00434926, No Iterations 2
time step continuity errors : sum local = 0.000124848, global = 2.4322e-06, cumulative = -0.000127791
depth: 1.54
smoothSolver:  Solving for epsilon, Initial residual = 0.0154003, Final residual = 0.000465464, No Iterations 1
smoothSolver:  Solving for k, Initial residual = 0.015382, Final residual = 0.000470716, No Iterations 1
smoothSolver:  Solving for Conc01, Initial residual = 0.00386795, Final residual = 0.000160979, No Iterations 4
smoothSolver:  Solving for Conc02, Initial residual = 0.00397663, Final residual = 0.000162464, No Iterations 4
smoothSolver:  Solving for Conc03, Initial residual = 0.00406474, Final residual = 0.000163807, No Iterations 4
smoothSolver:  Solving for Conc045, Initial residual = 0.00422276, Final residual = 0.000165626, No Iterations 4
ExecutionTime = 38.85 s  ClockTime = 39 s

Time = 3.1

smoothSolver:  Solving for Ux, Initial residual = 0.0458327, Final residual = 0.0024608, No Iterations 3
smoothSolver:  Solving for Uy, Initial residual = 0.135799, Final residual = 0.00625941, No Iterations 3
smoothSolver:  Solving for Uz, Initial residual = 0.112359, Final residual = 0.00595559, No Iterations 3
GAMG:  Solving for p, Initial residual = 0.113203, Final residual = 0.00462988, No Iterations 2
time step continuity errors : sum local = 0.000135028, global = 1.62175e-06, cumulative = -0.000126169
depth: 1.54
smoothSolver:  Solving for epsilon, Initial residual = 0.0155932, Final residual = 0.000467076, No Iterations 1
smoothSolver:  Solving for k, Initial residual = 0.0156085, Final residual = 0.000475464, No Iterations 1
smoothSolver:  Solving for Conc01, Initial residual = 0.00381256, Final residual = 0.000155329, No Iterations 4
smoothSolver:  Solving for Conc02, Initial residual = 0.00392043, Final residual = 0.000156503, No Iterations 4
smoothSolver:  Solving for Conc03, Initial residual = 0.00400715, Final residual = 0.000157525, No Iterations 4
smoothSolver:  Solving for Conc045, Initial residual = 0.00416093, Final residual = 0.000158762, No Iterations 4
ExecutionTime = 39.32 s  ClockTime = 40 s

Time = 3.15

smoothSolver:  Solving for Ux, Initial residual = 0.0461815, Final residual = 0.0024297, No Iterations 3
[...]
smoothSolver:  Solving for Conc045, Initial residual = 0.000846313, Final residual = 1.95074e-05, No Iterations 3
ExecutionTime = 307.12 s  ClockTime = 311 s

Time = 32.55

smoothSolver:  Solving for Ux, Initial residual = 0.002586, Final residual = 0.000182623, No Iterations 3
smoothSolver:  Solving for Uy, Initial residual = 0.0391118, Final residual = 0.00299291, No Iterations 3
smoothSolver:  Solving for Uz, Initial residual = 0.0186605, Final residual = 0.00149085, No Iterations 3
GAMG:  Solving for p, Initial residual = 0.00983332, Final residual = 0.000477899, No Iterations 2
time step continuity errors : sum local = 1.25837e-05, global = -2.88864e-07, cumulative = -6.46259e-05
depth: 1.54
smoothSolver:  Solving for epsilon, Initial residual = 0.00173004, Final residual = 9.33617e-05, No Iterations 1
smoothSolver:  Solving for k, Initial residual = 0.00135804, Final residual = 9.15421e-05, No Iterations 1
smoothSolver:  Solving for Conc01, Initial residual = 0.000999057, Final residual = 2.77144e-05, No Iterations 3
smoothSolver:  Solving for Conc02, Initial residual = 0.00103559, Final residual = 2.80232e-05, No Iterations 3
smoothSolver:  Solving for Conc03, Initial residual = 0.00100371, Final residual = 2.54748e-05, No Iterations 3
smoothSolver:  Solving for Conc045, Initial residual = 0.000848918, Final residual = 1.94516e-05, No Iterations 3
ExecutionTime = 307.56 s  ClockTime = 311 s

Time = 32.6

smoothSolver:  Solving for Ux, Initial residual = 0.00258759, Final residual = 0.000182619, No Iterations 3
smoothSolver:  Solving for Uy, Initial residual = 0.0394004, Final residual = 0.0030077, No Iterations 3
smoothSolver:  Solving for Uz, Initial residual = 0.0186954, Final residual = 0.00149981, No Iterations 3
GAMG:  Solving for p, Initial residual = 0.00987212, Final residual = 0.000477766, No Iterations 2
time step continuity errors : sum local = 1.25338e-05, global = -2.05413e-07, cumulative = -6.48313e-05
depth: 1.54
smoothSolver:  Solving for epsilon, Initial residual = 0.00174544, Final residual = 9.33466e-05, No Iterations 1
smoothSolver:  Solving for k, Initial residual = 0.00135936, Final residual = 9.13143e-05, No Iterations 1
smoothSolver:  Solving for Conc01, Initial residual = 0.00100049, Final residual = 2.76601e-05, No Iterations 3
smoothSolver:  Solving for Conc02, Initial residual = 0.00103788, Final residual = 2.79523e-05, No Iterations 3
smoothSolver:  Solving for Conc03, Initial residual = 0.00100623, Final residual = 2.54186e-05, No Iterations 3
smoothSolver:  Solving for Conc045, Initial residual = 0.000849174, Final residual = 1.93772e-05, No Iterations 3
ExecutionTime = 308 s  ClockTime = 312 s

Time = 32.65

smoothSolver:  Solving for Ux, Initial residual = 0.00259168, Final residual = 0.000183278, No Iterations 3
smoothSolver:  Solving for Uy, Initial residual = 0.0397064, Final residual = 0.00302811, No Iterations 3
smoothSolver:  Solving for Uz, Initial residual = 0.0187598, Final residual = 0.0015089, No Iterations 3
GAMG:  Solving for p, Initial residual = 0.00989769, Final residual = 0.000474512, No Iterations 2
time step continuity errors : sum local = 1.24101e-05, global = -1.01193e-07, cumulative = -6.49325e-05
depth: 1.54
smoothSolver:  Solving for epsilon, Initial residual = 0.00176323, Final residual = 9.35179e-05, No Iterations 1
smoothSolver:  Solving for k, Initial residual = 0.00136228, Final residual = 9.11234e-05, No Iterations 1
smoothSolver:  Solving for Conc01, Initial residual = 0.00100191, Final residual = 2.76073e-05, No Iterations 3
smoothSolver:  Solving for Conc02, Initial residual = 0.00103992, Final residual = 2.78788e-05, No Iterations 3
smoothSolver:  Solving for Conc03, Initial residual = 0.00100824, Final residual = 2.53653e-05, No Iterations 3
smoothSolver:  Solving for Conc045, Initial residual = 0.000849768, Final residual = 1.92977e-05, No Iterations 3
ExecutionTime = 308.43 s  ClockTime = 312 s

Time = 32.7

smoothSolver:  Solving for Ux, Initial residual = 0.00259517, Final residual = 0.000184276, No Iterations 3
smoothSolver:  Solving for Uy, Initial residual = 0.0400013, Final residual = 0.00304689, No Iterations 3
smoothSolver:  Solving for Uz, Initial residual = 0.0188436, Final residual = 0.00151594, No Iterations 3
GAMG:  Solving for p, Initial residual = 0.00996363, Final residual = 0.000477863, No Iterations 2
time step continuity errors : sum local = 1.24776e-05, global = 7.073e-09, cumulative = -6.49255e-05
depth: 1.54
smoothSolver:  Solving for epsilon, Initial residual = 0.00178222, Final residual = 9.39031e-05, No Iterations 1
smoothSolver:  Solving for k, Initial residual = 0.0013669, Final residual = 9.09939e-05, No Iterations 1
smoothSolver:  Solving for Conc01, Initial residual = 0.00100329, Final residual = 2.75544e-05, No Iterations 3
smoothSolver:  Solving for Conc02, Initial residual = 0.00104166, Final residual = 2.78102e-05, No Iterations 3
smoothSolver:  Solving for Conc03, Initial residual = 0.0010097, Final residual = 2.53137e-05, No Iterations 3
smoothSolver:  Solving for Conc045, Initial residual = 0.000850029, Final residual = 1.92239e-05, No Iterations 3
ExecutionTime = 308.87 s  ClockTime = 313 s

Time = 32.75

smoothSolver:  Solving for Ux, Initial residual = 0.00260131, Final residual = 0.000185182, No Iterations 3
smoothSolver:  Solving for Uy, Initial residual = 0.0402972, Final residual = 0.00306345, No Iterations 3
smoothSolver:  Solving for Uz, Initial residual = 0.0189381, Final residual = 0.0015197, No Iterations 3
GAMG:  Solving for p, Initial residual = 0.00999944, Final residual = 0.000481417, No Iterations 2
time step continuity errors : sum local = 1.25812e-05, global = 1.13564e-07, cumulative = -6.48119e-05
depth: 1.54
smoothSolver:  Solving for epsilon, Initial residual = 0.00179589, Final residual = 9.4211e-05, No Iterations 1
smoothSolver:  Solving for k, Initial residual = 0.00137192, Final residual = 9.08784e-05, No Iterations 1
smoothSolver:  Solving for Conc01, Initial residual = 0.00100459, Final residual = 2.74967e-05, No Iterations 3
smoothSolver:  Solving for Conc02, Initial residual = 0.00104311, Final residual = 2.7747e-05, No Iterations 3
smoothSolver:  Solving for Conc03, Initial residual = 0.00101091, Final residual = 2.52685e-05, No Iterations 3
smoothSolver:  Solving for Conc045, Initial residual = 0.000849113, Final residual = 1.91599e-05, No Iterations 3
ExecutionTime = 309.3 s  ClockTime = 313 s

Time = 32.8

smoothSolver:  Solving for Ux, Initial residual = 0.00261022, Final residual = 0.000185854, No Iterations 3
smoothSolver:  Solving for Uy, Initial residual = 0.0405893, Final residual = 0.00308122, No Iterations 3
smoothSolver:  Solving for Uz, Initial residual = 0.0190446, Final residual = 0.00152483, No Iterations 3
GAMG:  Solving for p, Initial residual = 0.00995546, Final residual = 0.000480513, No Iterations 2
time step continuity errors : sum local = 1.26007e-05, global = 2.24418e-07, cumulative = -6.45875e-05
depth: 1.54
smoothSolver:  Solving for epsilon, Initial residual = 0.00180567, Final residual = 9.44905e-05, No Iterations 1
smoothSolver:  Solving for k, Initial residual = 0.00137715, Final residual = 9.07841e-05, No Iterations 1
smoothSolver:  Solving for Conc01, Initial residual = 0.00100573, Final residual = 2.7441e-05, No Iterations 3
smoothSolver:  Solving for Conc02, Initial residual = 0.00104437, Final residual = 2.77106e-05, No Iterations 3
smoothSolver:  Solving for Conc03, Initial residual = 0.00101223, Final residual = 2.5245e-05, No Iterations 3
smoothSolver:  Solving for Conc045, Initial residual = 0.000849604, Final residual = 1.91178e-05, No Iterations 3
ExecutionTime = 309.72 s  ClockTime = 314 s

Time = 32.85

smoothSolver:  Solving for Ux, Initial residual = 0.00262169, Final residual = 0.000186335, No Iterations 3
smoothSolver:  Solving for Uy, Initial residual = 0.0408919, Final residual = 0.00310288, No Iterations 3
smoothSolver:  Solving for Uz, Initial residual = 0.0191797, Final residual = 0.00152837, No Iterations 3
GAMG:  Solving for p, Initial residual = 0.00988391, Final residual = 0.000473634, No Iterations 2
time step continuity errors : sum local = 1.24875e-05, global = 3.50758e-07, cumulative = -6.42367e-05
depth: 1.54
smoothSolver:  Solving for epsilon, Initial residual = 0.00181293, Final residual = 9.46084e-05, No Iterations 1
smoothSolver:  Solving for k, Initial residual = 0.0013825, Final residual = 9.07828e-05, No Iterations 1
smoothSolver:  Solving for Conc01, Initial residual = 0.00100667, Final residual = 2.73926e-05, No Iterations 3
smoothSolver:  Solving for Conc02, Initial residual = 0.00104553, Final residual = 2.77023e-05, No Iterations 3
smoothSolver:  Solving for Conc03, Initial residual = 0.00101341, Final residual = 2.52424e-05, No Iterations 3
smoothSolver:  Solving for Conc045, Initial residual = 0.000850528, Final residual = 1.91169e-05, No Iterations 3
ExecutionTime = 310.16 s  ClockTime = 314 s

Time = 32.9

smoothSolver:  Solving for Ux, Initial residual = 0.0026347, Final residual = 0.000186861, No Iterations 3
smoothSolver:  Solving for Uy, Initial residual = 0.041214, Final residual = 0.00312427, No Iterations 3
smoothSolver:  Solving for Uz, Initial residual = 0.0193283, Final residual = 0.0015306, No Iterations 3
GAMG:  Solving for p, Initial residual = 0.00983865, Final residual = 0.000466584, No Iterations 2
time step continuity errors : sum local = 1.2376e-05, global = 5.07509e-07, cumulative = -6.37292e-05
depth: 1.54
smoothSolver:  Solving for epsilon, Initial residual = 0.00181821, Final residual = 9.46668e-05, No Iterations 1
smoothSolver:  Solving for k, Initial residual = 0.00138771, Final residual = 9.08414e-05, No Iterations 1
smoothSolver:  Solving for Conc01, Initial residual = 0.00100745, Final residual = 2.735e-05, No Iterations 3
smoothSolver:  Solving for Conc02, Initial residual = 0.00104684, Final residual = 2.77223e-05, No Iterations 3
smoothSolver:  Solving for Conc03, Initial residual = 0.00101514, Final residual = 2.52674e-05, No Iterations 3
smoothSolver:  Solving for Conc045, Initial residual = 0.000851695, Final residual = 1.9136e-05, No Iterations 3
ExecutionTime = 310.59 s  ClockTime = 314 s

Time = 32.95

smoothSolver:  Solving for Ux, Initial residual = 0.00265048, Final residual = 0.000187192, No Iterations 3
smoothSolver:  Solving for Uy, Initial residual = 0.0415429, Final residual = 0.00313998, No Iterations 3
smoothSolver:  Solving for Uz, Initial residual = 0.0194854, Final residual = 0.00153569, No Iterations 3
GAMG:  Solving for p, Initial residual = 0.00983523, Final residual = 0.000473493, No Iterations 2
time step continuity errors : sum local = 1.26041e-05, global = 3.10299e-07, cumulative = -6.34189e-05
depth: 1.54
smoothSolver:  Solving for epsilon, Initial residual = 0.00183042, Final residual = 9.48247e-05, No Iterations 1
smoothSolver:  Solving for k, Initial residual = 0.00139333, Final residual = 9.08846e-05, No Iterations 1
smoothSolver:  Solving for Conc01, Initial residual = 0.00100803, Final residual = 2.73159e-05, No Iterations 3
smoothSolver:  Solving for Conc02, Initial residual = 0.00104828, Final residual = 2.77671e-05, No Iterations 3
smoothSolver:  Solving for Conc03, Initial residual = 0.00101661, Final residual = 2.53137e-05, No Iterations 3
smoothSolver:  Solving for Conc045, Initial residual = 0.000854084, Final residual = 1.91772e-05, No Iterations 3
ExecutionTime = 311.03 s  ClockTime = 315 s

Time = 33

smoothSolver:  Solving for Ux, Initial residual = 0.00266946, Final residual = 0.000187852, No Iterations 3
smoothSolver:  Solving for Uy, Initial residual = 0.0418602, Final residual = 0.00315357, No Iterations 3
smoothSolver:  Solving for Uz, Initial residual = 0.0196462, Final residual = 0.00154779, No Iterations 3
GAMG:  Solving for p, Initial residual = 0.00983446, Final residual = 0.000473583, No Iterations 2
time step continuity errors : sum local = 1.26637e-05, global = -8.19059e-08, cumulative = -6.35008e-05
depth: 1.54
smoothSolver:  Solving for epsilon, Initial residual = 0.00184695, Final residual = 9.50055e-05, No Iterations 1
smoothSolver:  Solving for k, Initial residual = 0.00139962, Final residual = 9.0988e-05, No Iterations 1
smoothSolver:  Solving for Conc01, Initial residual = 0.00100856, Final residual = 2.72962e-05, No Iterations 3
smoothSolver:  Solving for Conc02, Initial residual = 0.00105006, Final residual = 2.78316e-05, No Iterations 3
smoothSolver:  Solving for Conc03, Initial residual = 0.00101834, Final residual = 2.53901e-05, No Iterations 3
smoothSolver:  Solving for Conc045, Initial residual = 0.000853819, Final residual = 1.92427e-05, No Iterations 3
ExecutionTime = 311.46 s  ClockTime = 315 s

Time = 33.05

smoothSolver:  Solving for Ux, Initial residual = 0.00268688, Final residual = 0.00018907, No Iterations 3
smoothSolver:  Solving for Uy, Initial residual = 0.0421115, Final residual = 0.00315833, No Iterations 3
smoothSolver:  Solving for Uz, Initial residual = 0.0197979, Final residual = 0.00156562, No Iterations 3
GAMG:  Solving for p, Initial residual = 0.00997417, Final residual = 0.000499744, No Iterations 2
time step continuity errors : sum local = 1.32513e-05, global = -2.4119e-07, cumulative = -6.3742e-05
depth: 1.54
smoothSolver:  Solving for epsilon, Initial residual = 0.00186874, Final residual = 9.54564e-05, No Iterations 1
smoothSolver:  Solving for k, Initial residual = 0.00140716, Final residual = 9.11847e-05, No Iterations 1
smoothSolver:  Solving for Conc01, Initial residual = 0.00100903, Final residual = 2.72829e-05, No Iterations 3
smoothSolver:  Solving for Conc02, Initial residual = 0.00105197, Final residual = 2.79129e-05, No Iterations 3
smoothSolver:  Solving for Conc03, Initial residual = 0.00102065, Final residual = 2.54967e-05, No Iterations 3
smoothSolver:  Solving for Conc045, Initial residual = 0.00085307, Final residual = 1.93349e-05, No Iterations 3
ExecutionTime = 311.89 s  ClockTime = 316 s

Time = 33.1

smoothSolver:  Solving for Ux, Initial residual = 0.00270328, Final residual = 0.000190948, No Iterations 3
smoothSolver:  Solving for Uy, Initial residual = 0.0424804, Final residual = 0.0031757, No Iterations 3
smoothSolver:  Solving for Uz, Initial residual = 0.0200152, Final residual = 0.00158957, No Iterations 3
GAMG:  Solving for p, Initial residual = 0.010038, Final residual = 0.000510571, No Iterations 2
time step continuity errors : sum local = 1.34263e-05, global = -2.58852e-07, cumulative = -6.40009e-05
depth: 1.54
smoothSolver:  Solving for epsilon, Initial residual = 0.00189463, Final residual = 9.61021e-05, No Iterations 1
smoothSolver:  Solving for k, Initial residual = 0.0014153, Final residual = 9.15143e-05, No Iterations 1
smoothSolver:  Solving for Conc01, Initial residual = 0.00100956, Final residual = 2.72781e-05, No Iterations 3
smoothSolver:  Solving for Conc02, Initial residual = 0.00105428, Final residual = 2.79978e-05, No Iterations 3
smoothSolver:  Solving for Conc03, Initial residual = 0.00102337, Final residual = 2.56176e-05, No Iterations 3
smoothSolver:  Solving for Conc045, Initial residual = 0.000852882, Final residual = 1.94376e-05, No Iterations 3
ExecutionTime = 312.33 s  ClockTime = 316 s

Time = 33.15

smoothSolver:  Solving for Ux, Initial residual = 0.00272231, Final residual = 0.000193462, No Iterations 3
smoothSolver:  Solving for Uy, Initial residual = 0.0427899, Final residual = 0.00319323, No Iterations 3
smoothSolver:  Solving for Uz, Initial residual = 0.0202734, Final residual = 0.00161305, No Iterations 3
GAMG:  Solving for p, Initial residual = 0.0101127, Final residual = 0.00051614, No Iterations 2
time step continuity errors : sum local = 1.34866e-05, global = -1.08254e-07, cumulative = -6.41091e-05
depth: 1.54
smoothSolver:  Solving for epsilon, Initial residual = 0.00192129, Final residual = 9.7061e-05, No Iterations 1
smoothSolver:  Solving for k, Initial residual = 0.00142401, Final residual = 9.19222e-05, No Iterations 1
smoothSolver:  Solving for Conc01, Initial residual = 0.00101013, Final residual = 2.72789e-05, No Iterations 3
smoothSolver:  Solving for Conc02, Initial residual = 0.00105668, Final residual = 2.80694e-05, No Iterations 3
smoothSolver:  Solving for Conc03, Initial residual = 0.00102649, Final residual = 2.57233e-05, No Iterations 3
smoothSolver:  Solving for Conc045, Initial residual = 0.000852811, Final residual = 1.95224e-05, No Iterations 3
ExecutionTime = 312.76 s  ClockTime = 317 s

Time = 33.2

smoothSolver:  Solving for Ux, Initial residual = 0.00274218, Final residual = 0.000196212, No Iterations 3
smoothSolver:  Solving for Uy, Initial residual = 0.0431317, Final residual = 0.00321489, No Iterations 3
smoothSolver:  Solving for Uz, Initial residual = 0.0205493, Final residual = 0.00163616, No Iterations 3
GAMG:  Solving for p, Initial residual = 0.0101919, Final residual = 0.000516238, No Iterations 2
time step continuity errors : sum local = 1.3391e-05, global = 1.70555e-07, cumulative = -6.39386e-05
depth: 1.54
smoothSolver:  Solving for epsilon, Initial residual = 0.00195002, Final residual = 9.8296e-05, No Iterations 1
smoothSolver:  Solving for k, Initial residual = 0.00143273, Final residual = 9.2445e-05, No Iterations 1
smoothSolver:  Solving for Conc01, Initial residual = 0.00101056, Final residual = 2.72802e-05, No Iterations 3
smoothSolver:  Solving for Conc02, Initial residual = 0.00105893, Final residual = 2.81281e-05, No Iterations 3
smoothSolver:  Solving for Conc03, Initial residual = 0.00102946, Final residual = 2.58082e-05, No Iterations 3
smoothSolver:  Solving for Conc045, Initial residual = 0.000854047, Final residual = 1.9593e-05, No Iterations 3
ExecutionTime = 313.21 s  ClockTime = 317 s

Time = 33.25

smoothSolver:  Solving for Ux, Initial residual = 0.00276267, Final residual = 0.000199073, No Iterations 3
smoothSolver:  Solving for Uy, Initial residual = 0.0435327, Final residual = 0.00324029, No Iterations 3
smoothSolver:  Solving for Uz, Initial residual = 0.0208075, Final residual = 0.00165858, No Iterations 3
GAMG:  Solving for p, Initial residual = 0.0103234, Final residual = 0.000519294, No Iterations 2
time step continuity errors : sum local = 1.329e-05, global = 5.62533e-07, cumulative = -6.3376e-05
depth: 1.54
smoothSolver:  Solving for epsilon, Initial residual = 0.00197783, Final residual = 9.9671e-05, No Iterations 1
smoothSolver:  Solving for k, Initial residual = 0.00144161, Final residual = 9.30545e-05, No Iterations 1
smoothSolver:  Solving for Conc01, Initial residual = 0.00101091, Final residual = 2.72882e-05, No Iterations 3
smoothSolver:  Solving for Conc02, Initial residual = 0.00106108, Final residual = 2.8171e-05, No Iterations 3
smoothSolver:  Solving for Conc03, Initial residual = 0.00103264, Final residual = 2.58927e-05, No Iterations 3
smoothSolver:  Solving for Conc045, Initial residual = 0.000854577, Final residual = 1.96574e-05, No Iterations 3
ExecutionTime = 313.64 s  ClockTime = 317 s

Time = 33.3

smoothSolver:  Solving for Ux, Initial residual = 0.00278331, Final residual = 0.000201896, No Iterations 3
smoothSolver:  Solving for Uy, Initial residual = 0.0439657, Final residual = 0.00327584, No Iterations 3
smoothSolver:  Solving for Uz, Initial residual = 0.0210525, Final residual = 0.00168248, No Iterations 3
GAMG:  Solving for p, Initial residual = 0.0104886, Final residual = 0.000527359, No Iterations 2
time step continuity errors : sum local = 1.32491e-05, global = 7.61494e-07, cumulative = -6.26145e-05
depth: 1.54
smoothSolver:  Solving for epsilon, Initial residual = 0.00200082, Final residual = 0.000101381, No Iterations 1
smoothSolver:  Solving for k, Initial residual = 0.00144935, Final residual = 9.37644e-05, No Iterations 1
smoothSolver:  Solving for Conc01, Initial residual = 0.00101139, Final residual = 2.73128e-05, No Iterations 3
